Compound_12_i0
     RDKit          3D

 54 58  0  0  0  0  0  0  0  0999 V2000
   -4.4760    4.1398    0.1130 F   0  0  0  0  0  0  0  0  0  0  0  0
   -3.1450    4.1614   -0.0372 C   0  0  0  0  0  0  0  0  0  0  0  0
   -2.5663    5.1204   -0.8567 C   0  0  0  0  0  0  0  0  0  0  0  0
   -1.1836    5.1332   -1.0039 C   0  0  0  0  0  0  0  0  0  0  0  0
   -0.4463    6.3123   -2.0175 Cl  0  0  0  0  0  0  0  0  0  0  0  0
   -0.3884    4.1977   -0.3373 C   0  0  0  0  0  0  0  0  0  0  0  0
   -0.9744    3.2287    0.4937 C   0  0  0  0  0  0  0  0  0  0  0  0
   -0.1187    2.1955    1.1963 C   0  0  0  0  0  0  0  0  0  0  0  0
    0.2599    1.0758    0.3219 N   0  0  0  0  0  0  0  0  0  0  0  0
    1.5228    1.1318   -0.2756 C   0  0  0  0  0  0  0  0  0  0  0  0
    2.2243    2.1472   -0.2252 O   0  0  0  0  0  0  0  0  0  0  0  0
    2.0675   -0.1360   -0.9337 C   0  0  0  0  0  0  0  0  0  0  0  0
    3.4591   -0.4747   -0.4458 C   0  0  0  0  0  0  0  0  0  0  0  0
    4.5550   -0.0289   -1.1856 C   0  0  0  0  0  0  0  0  0  0  0  0
    5.8425   -0.2644   -0.8631 N   0  0  0  0  0  0  0  0  0  0  0  0
    6.0566   -0.9606    0.2734 C   0  0  0  0  0  0  0  0  0  0  0  0
    5.0518   -1.4428    1.1133 C   0  0  0  0  0  0  0  0  0  0  0  0
    5.3549   -2.1547    2.2882 C   0  0  0  0  0  0  0  0  0  0  0  0
    4.3383   -2.6260    3.1157 C   0  0  0  0  0  0  0  0  0  0  0  0
    3.0114   -2.3903    2.7783 C   0  0  0  0  0  0  0  0  0  0  0  0
    2.6998   -1.6839    1.6129 C   0  0  0  0  0  0  0  0  0  0  0  0
    3.7092   -1.1944    0.7507 C   0  0  0  0  0  0  0  0  0  0  0  0
   -0.7706    0.1672   -0.0649 C   0  0  0  0  0  0  0  0  0  0  0  0
   -1.6298   -0.3838    0.8930 C   0  0  0  0  0  0  0  0  0  0  0  0
   -2.6601   -1.2563    0.5167 C   0  0  0  0  0  0  0  0  0  0  0  0
   -2.8625   -1.5876   -0.8279 C   0  0  0  0  0  0  0  0  0  0  0  0
   -2.0092   -1.0241   -1.7848 C   0  0  0  0  0  0  0  0  0  0  0  0
   -0.9790   -0.1537   -1.4106 C   0  0  0  0  0  0  0  0  0  0  0  0
   -3.9236   -2.4861   -1.2580 C   0  0  0  0  0  0  0  0  0  0  0  0
   -4.9263   -3.0219   -0.4775 C   0  0  0  0  0  0  0  0  0  0  0  0
   -5.6770   -3.7883   -1.3288 N   0  0  0  0  0  0  0  0  0  0  0  0
   -5.1178   -3.6947   -2.5696 C   0  0  0  0  0  0  0  0  0  0  0  0
   -4.0605   -2.9173   -2.5605 N   0  0  0  0  0  0  0  0  0  0  0  0
   -2.3692    3.2202    0.6347 C   0  0  0  0  0  0  0  0  0  0  0  0
   -3.1952    5.8405   -1.3688 H   0  0  0  0  0  0  0  0  0  0  0  0
    0.6931    4.2210   -0.4674 H   0  0  0  0  0  0  0  0  0  0  0  0
    0.7813    2.6890    1.5849 H   0  0  0  0  0  0  0  0  0  0  0  0
   -0.6311    1.8179    2.0881 H   0  0  0  0  0  0  0  0  0  0  0  0
    2.0793    0.0355   -2.0174 H   0  0  0  0  0  0  0  0  0  0  0  0
    1.4310   -1.0090   -0.7744 H   0  0  0  0  0  0  0  0  0  0  0  0
    4.4214    0.5550   -2.0934 H   0  0  0  0  0  0  0  0  0  0  0  0
    7.1065   -1.1242    0.5028 H   0  0  0  0  0  0  0  0  0  0  0  0
    6.3900   -2.3447    2.5647 H   0  0  0  0  0  0  0  0  0  0  0  0
    4.5830   -3.1751    4.0211 H   0  0  0  0  0  0  0  0  0  0  0  0
    2.2139   -2.7566    3.4197 H   0  0  0  0  0  0  0  0  0  0  0  0
    1.6482   -1.5245    1.3901 H   0  0  0  0  0  0  0  0  0  0  0  0
   -1.4965   -0.1779    1.9512 H   0  0  0  0  0  0  0  0  0  0  0  0
   -3.2925   -1.6743    1.2950 H   0  0  0  0  0  0  0  0  0  0  0  0
   -2.1536   -1.2511   -2.8406 H   0  0  0  0  0  0  0  0  0  0  0  0
   -0.3808    0.2974   -2.1978 H   0  0  0  0  0  0  0  0  0  0  0  0
   -5.1775   -2.9311    0.5688 H   0  0  0  0  0  0  0  0  0  0  0  0
   -6.4997   -4.3242   -1.0893 H   0  0  0  0  0  0  0  0  0  0  0  0
   -5.5213   -4.2078   -3.4326 H   0  0  0  0  0  0  0  0  0  0  0  0
   -2.8682    2.4836    1.2579 H   0  0  0  0  0  0  0  0  0  0  0  0
  1  2  1  0
  2  3  2  0
  3  4  1  0
  4  5  1  0
  4  6  2  0
  6  7  1  0
  7  8  1  0
  8  9  1  0
  9 10  1  0
 10 11  2  0
 10 12  1  0
 12 13  1  0
 13 14  2  0
 14 15  1  0
 15 16  2  0
 16 17  1  0
 17 18  2  0
 18 19  1  0
 19 20  2  0
 20 21  1  0
 21 22  2  0
  9 23  1  0
 23 24  2  0
 24 25  1  0
 25 26  2  0
 26 27  1  0
 27 28  2  0
 26 29  1  0
 29 30  2  0
 30 31  1  0
 31 32  1  0
 32 33  2  0
  7 34  2  0
 34  2  1  0
 22 13  1  0
 28 23  1  0
 33 29  1  0
 22 17  1  0
  3 35  1  0
  6 36  1  0
  8 37  1  0
  8 38  1  0
 12 39  1  0
 12 40  1  0
 14 41  1  0
 16 42  1  0
 18 43  1  0
 19 44  1  0
 20 45  1  0
 21 46  1  0
 24 47  1  0
 25 48  1  0
 27 49  1  0
 28 50  1  0
 30 51  1  0
 31 52  1  0
 32 53  1  0
 34 54  1  0
M  END
>  <ScrubInfo>  (1) 
{"isomerGroup": 4, "isomerId": 0, "confId": 0, "nr_conformers:": 1, "nr_isomers:": 2}

$$$$
Compound_63
     RDKit          3D

 74 78  0  0  0  0  0  0  0  0999 V2000
    6.7628   -3.4478   -0.2585 C   0  0  0  0  0  0  0  0  0  0  0  0
    7.1463   -2.4532    0.7920 N   0  0  0  0  0  0  0  0  0  0  0  0
    6.0262   -1.4575    0.8776 C   0  0  0  0  0  0  0  0  0  0  0  0
    5.3587   -3.1232   -0.6088 C   0  0  0  0  0  0  0  0  0  0  0  0
    4.9291   -2.0200    0.0290 C   0  0  0  0  0  0  0  0  0  0  0  0
    3.6036   -1.3909   -0.0769 C   0  0  0  0  0  0  0  0  0  0  0  0
    3.3872   -0.0757    0.3549 C   0  0  0  0  0  0  0  0  0  0  0  0
    2.5052   -2.0872   -0.6052 C   0  0  0  0  0  0  0  0  0  0  0  0
    2.1260    0.5269    0.2301 C   0  0  0  0  0  0  0  0  0  0  0  0
    1.2425   -1.4829   -0.7237 C   0  0  0  0  0  0  0  0  0  0  0  0
    1.0335   -0.1615   -0.3182 C   0  0  0  0  0  0  0  0  0  0  0  0
   -0.2391    0.5037   -0.4638 N   0  0  0  0  0  0  0  0  0  0  0  0
   -1.4859   -0.2351   -0.1125 C   0  0  1  0  0  0  0  0  0  0  0  0
   -0.2267    1.8042   -1.0075 C   0  0  0  0  0  0  0  0  0  0  0  0
   -1.9475   -1.2951   -1.1510 C   0  0  0  0  0  0  0  0  0  0  0  0
   -1.4822   -0.6643    1.3593 C   0  0  0  0  0  0  0  0  0  0  0  0
    0.8034    2.3242   -1.4552 O   0  0  0  0  0  0  0  0  0  0  0  0
   -1.5402    2.5802   -1.0711 C   0  0  0  0  0  0  0  0  0  0  0  0
   -2.8701   -2.2197   -0.6907 N   0  0  0  0  0  0  0  0  0  0  0  0
   -1.5709   -1.2593   -2.3213 O   0  0  0  0  0  0  0  0  0  0  0  0
   -2.0099    0.2056    2.3313 C   0  0  0  0  0  0  0  0  0  0  0  0
   -0.9233   -1.8775    1.7969 C   0  0  0  0  0  0  0  0  0  0  0  0
   -1.3427    4.0717   -1.2401 C   0  0  0  0  0  0  0  0  0  0  0  0
   -3.4902   -3.2805   -1.5079 C   0  0  0  0  0  0  0  0  0  0  0  0
   -1.9627   -0.1305    3.6825 C   0  0  0  0  0  0  0  0  0  0  0  0
   -0.8831   -2.1886    3.1557 C   0  0  0  0  0  0  0  0  0  0  0  0
   -1.2695    4.5911   -2.5333 C   0  0  0  0  0  0  0  0  0  0  0  0
   -1.1766    4.9657   -0.1492 C   0  0  0  0  0  0  0  0  0  0  0  0
   -2.4237   -4.1802   -2.1529 C   0  0  0  0  0  0  0  0  0  0  0  0
   -4.4013   -2.6759   -2.5850 C   0  0  0  0  0  0  0  0  0  0  0  0
   -4.3424   -4.1574   -0.5745 C   0  0  0  0  0  0  0  0  0  0  0  0
   -2.4757    0.7162    4.5851 F   0  0  0  0  0  0  0  0  0  0  0  0
   -1.3982   -1.3233    4.1073 C   0  0  0  0  0  0  0  0  0  0  0  0
   -0.3070   -3.3333    3.5493 F   0  0  0  0  0  0  0  0  0  0  0  0
   -1.0804    5.8923   -2.8188 N   0  0  0  0  0  0  0  0  0  0  0  0
   -1.1983    4.5792    1.2110 C   0  0  0  0  0  0  0  0  0  0  0  0
   -0.9704    6.3342   -0.4297 C   0  0  0  0  0  0  0  0  0  0  0  0
   -0.9355    6.7259   -1.7675 C   0  0  0  0  0  0  0  0  0  0  0  0
   -1.0356    5.5116    2.2401 C   0  0  0  0  0  0  0  0  0  0  0  0
   -0.7988    7.2644    0.6125 C   0  0  0  0  0  0  0  0  0  0  0  0
   -0.8371    6.8534    1.9422 C   0  0  0  0  0  0  0  0  0  0  0  0
    7.4390   -3.3161   -1.1073 H   0  0  0  0  0  0  0  0  0  0  0  0
    6.8715   -4.4462    0.1764 H   0  0  0  0  0  0  0  0  0  0  0  0
    8.0376   -2.0039    0.5623 H   0  0  0  0  0  0  0  0  0  0  0  0
    7.2540   -2.9294    1.6947 H   0  0  0  0  0  0  0  0  0  0  0  0
    5.7517   -1.3695    1.9326 H   0  0  0  0  0  0  0  0  0  0  0  0
    6.4108   -0.5072    0.4925 H   0  0  0  0  0  0  0  0  0  0  0  0
    4.7898   -3.7143   -1.3179 H   0  0  0  0  0  0  0  0  0  0  0  0
    4.1803    0.5394    0.7728 H   0  0  0  0  0  0  0  0  0  0  0  0
    2.5998   -3.1132   -0.9554 H   0  0  0  0  0  0  0  0  0  0  0  0
    2.0155    1.5591    0.5639 H   0  0  0  0  0  0  0  0  0  0  0  0
    0.4667   -2.0681   -1.2085 H   0  0  0  0  0  0  0  0  0  0  0  0
   -2.3241    0.4643   -0.1893 H   0  0  0  0  0  0  0  0  0  0  0  0
   -2.1228    2.1892   -1.9119 H   0  0  0  0  0  0  0  0  0  0  0  0
   -2.1356    2.4227   -0.1721 H   0  0  0  0  0  0  0  0  0  0  0  0
   -3.3158   -2.0313    0.1990 H   0  0  0  0  0  0  0  0  0  0  0  0
   -2.4595    1.1586    2.0532 H   0  0  0  0  0  0  0  0  0  0  0  0
   -0.4930   -2.5921    1.0996 H   0  0  0  0  0  0  0  0  0  0  0  0
   -1.3542    3.9519   -3.4086 H   0  0  0  0  0  0  0  0  0  0  0  0
   -2.8819   -5.0549   -2.6240 H   0  0  0  0  0  0  0  0  0  0  0  0
   -1.8553   -3.6542   -2.9241 H   0  0  0  0  0  0  0  0  0  0  0  0
   -1.7063   -4.5384   -1.4053 H   0  0  0  0  0  0  0  0  0  0  0  0
   -3.8417   -2.0591   -3.2993 H   0  0  0  0  0  0  0  0  0  0  0  0
   -4.9083   -3.4591   -3.1607 H   0  0  0  0  0  0  0  0  0  0  0  0
   -5.1703   -2.0342   -2.1364 H   0  0  0  0  0  0  0  0  0  0  0  0
   -3.7165   -4.6231    0.1979 H   0  0  0  0  0  0  0  0  0  0  0  0
   -5.1075   -3.5662   -0.0577 H   0  0  0  0  0  0  0  0  0  0  0  0
   -4.8492   -4.9557   -1.1259 H   0  0  0  0  0  0  0  0  0  0  0  0
   -1.3566   -1.5695    5.1610 H   0  0  0  0  0  0  0  0  0  0  0  0
   -1.3389    3.5443    1.5008 H   0  0  0  0  0  0  0  0  0  0  0  0
   -0.7784    7.7638   -2.0452 H   0  0  0  0  0  0  0  0  0  0  0  0
   -1.0653    5.1849    3.2764 H   0  0  0  0  0  0  0  0  0  0  0  0
   -0.6292    8.3171    0.3913 H   0  0  0  0  0  0  0  0  0  0  0  0
   -0.7055    7.5802    2.7415 H   0  0  0  0  0  0  0  0  0  0  0  0
  1  2  1  0
  2  3  1  0
  4  1  1  0
  5  4  2  0
  6  5  1  0
  3  5  1  0
  7  6  2  0
  6  8  1  0
  9  7  1  0
  8 10  2  0
 11  9  2  0
 10 11  1  0
 12 11  1  0
 13 12  1  0
 12 14  1  0
 15 13  1  0
 13 16  1  0
 14 17  2  0
 14 18  1  0
 19 15  1  0
 15 20  2  0
 16 21  2  0
 22 16  1  0
 18 23  1  0
 24 19  1  0
 21 25  1  0
 26 22  2  0
 23 27  2  0
 28 23  1  0
 29 24  1  0
 24 30  1  0
 24 31  1  0
 25 32  1  0
 25 33  2  0
 33 26  1  0
 26 34  1  0
 27 35  1  0
 36 28  2  0
 28 37  1  0
 35 38  2  0
 39 36  1  0
 38 37  1  0
 37 40  2  0
 41 39  2  0
 40 41  1  0
  1 42  1  0
  1 43  1  0
  2 44  1  0
  2 45  1  0
  3 46  1  0
  3 47  1  0
  4 48  1  0
  7 49  1  0
  8 50  1  0
  9 51  1  0
 10 52  1  0
 13 53  1  1
 18 54  1  0
 18 55  1  0
 19 56  1  0
 21 57  1  0
 22 58  1  0
 27 59  1  0
 29 60  1  0
 29 61  1  0
 29 62  1  0
 30 63  1  0
 30 64  1  0
 30 65  1  0
 31 66  1  0
 31 67  1  0
 31 68  1  0
 33 69  1  0
 36 70  1  0
 38 71  1  0
 39 72  1  0
 40 73  1  0
 41 74  1  0
M  CHG  1   2   1
M  END
>  <ScrubInfo>  (2) 
{"isomerGroup": 3, "isomerId": 0, "confId": 0, "nr_conformers:": 1, "nr_isomers:": 1}

$$$$
Compound_12_i1
     RDKit          3D

 54 58  0  0  0  0  0  0  0  0999 V2000
    5.1408   -3.1247   -2.9146 N   0  0  0  0  0  0  0  0  0  0  0  0
    6.2407   -3.9258   -3.0200 C   0  0  0  0  0  0  0  0  0  0  0  0
    6.6648   -4.3163   -1.8427 N   0  0  0  0  0  0  0  0  0  0  0  0
    5.8008   -3.7425   -0.9453 C   0  0  0  0  0  0  0  0  0  0  0  0
    4.8296   -2.9856   -1.5792 C   0  0  0  0  0  0  0  0  0  0  0  0
    3.7224   -2.1829   -1.0628 C   0  0  0  0  0  0  0  0  0  0  0  0
    3.7497   -1.6967    0.2473 C   0  0  0  0  0  0  0  0  0  0  0  0
    2.6954   -0.9228    0.7582 C   0  0  0  0  0  0  0  0  0  0  0  0
    1.5748   -0.6093   -0.0229 C   0  0  0  0  0  0  0  0  0  0  0  0
    0.4964    0.2114    0.4813 N   0  0  0  0  0  0  0  0  0  0  0  0
    0.8270    1.2661    1.4584 C   0  0  0  0  0  0  0  0  0  0  0  0
    0.8557    2.6604    0.8640 C   0  0  0  0  0  0  0  0  0  0  0  0
    1.5156    2.9285   -0.3444 C   0  0  0  0  0  0  0  0  0  0  0  0
    1.5478    4.2247   -0.8539 C   0  0  0  0  0  0  0  0  0  0  0  0
    2.1755    4.4574   -2.0135 F   0  0  0  0  0  0  0  0  0  0  0  0
    0.9453    5.2786   -0.1818 C   0  0  0  0  0  0  0  0  0  0  0  0
    0.3066    5.0262    1.0264 C   0  0  0  0  0  0  0  0  0  0  0  0
   -0.4383    6.3173    1.8852 Cl  0  0  0  0  0  0  0  0  0  0  0  0
    0.2635    3.7321    1.5539 C   0  0  0  0  0  0  0  0  0  0  0  0
   -0.8289   -0.0091    0.0394 C   0  0  0  0  0  0  0  0  0  0  0  0
   -1.1542   -0.9615   -0.6738 O   0  0  0  0  0  0  0  0  0  0  0  0
   -1.8904    0.9976    0.4913 C   0  0  0  0  0  0  0  0  0  0  0  0
   -3.3071    0.6209    0.1125 C   0  0  0  0  0  0  0  0  0  0  0  0
   -3.8786    1.2147   -1.0140 C   0  0  0  0  0  0  0  0  0  0  0  0
   -5.1352    0.9893   -1.4454 N   0  0  0  0  0  0  0  0  0  0  0  0
   -5.8621    0.1043   -0.7301 C   0  0  0  0  0  0  0  0  0  0  0  0
   -5.4049   -0.5722    0.4016 C   0  0  0  0  0  0  0  0  0  0  0  0
   -6.2223   -1.4857    1.0921 C   0  0  0  0  0  0  0  0  0  0  0  0
   -5.7449   -2.1584    2.2145 C   0  0  0  0  0  0  0  0  0  0  0  0
   -4.4476   -1.9279    2.6551 C   0  0  0  0  0  0  0  0  0  0  0  0
   -3.6283   -1.0198    1.9772 C   0  0  0  0  0  0  0  0  0  0  0  0
   -4.0859   -0.3158    0.8390 C   0  0  0  0  0  0  0  0  0  0  0  0
    1.5531   -1.1071   -1.3333 C   0  0  0  0  0  0  0  0  0  0  0  0
    2.6057   -1.8809   -1.8460 C   0  0  0  0  0  0  0  0  0  0  0  0
    4.6560   -2.6926   -3.6873 H   0  0  0  0  0  0  0  0  0  0  0  0
    6.6838   -4.1841   -3.9727 H   0  0  0  0  0  0  0  0  0  0  0  0
    5.9217   -3.9090    0.1176 H   0  0  0  0  0  0  0  0  0  0  0  0
    4.5932   -1.9148    0.8993 H   0  0  0  0  0  0  0  0  0  0  0  0
    2.7717   -0.6299    1.8002 H   0  0  0  0  0  0  0  0  0  0  0  0
    1.7978    1.1127    1.9337 H   0  0  0  0  0  0  0  0  0  0  0  0
    0.0964    1.2113    2.2722 H   0  0  0  0  0  0  0  0  0  0  0  0
    2.0129    2.1413   -0.9053 H   0  0  0  0  0  0  0  0  0  0  0  0
    0.9868    6.2779   -0.6023 H   0  0  0  0  0  0  0  0  0  0  0  0
   -0.2368    3.5639    2.5061 H   0  0  0  0  0  0  0  0  0  0  0  0
   -1.8590    1.1400    1.5745 H   0  0  0  0  0  0  0  0  0  0  0  0
   -1.6541    1.9633    0.0310 H   0  0  0  0  0  0  0  0  0  0  0  0
   -3.3216    1.9228   -1.6232 H   0  0  0  0  0  0  0  0  0  0  0  0
   -6.8676   -0.0560   -1.1110 H   0  0  0  0  0  0  0  0  0  0  0  0
   -7.2375   -1.6810    0.7532 H   0  0  0  0  0  0  0  0  0  0  0  0
   -6.3820   -2.8666    2.7379 H   0  0  0  0  0  0  0  0  0  0  0  0
   -4.0658   -2.4598    3.5231 H   0  0  0  0  0  0  0  0  0  0  0  0
   -2.6159   -0.8849    2.3474 H   0  0  0  0  0  0  0  0  0  0  0  0
    0.7250   -0.8882   -2.0046 H   0  0  0  0  0  0  0  0  0  0  0  0
    2.5125   -2.2509   -2.8634 H   0  0  0  0  0  0  0  0  0  0  0  0
  1  2  1  0
  2  3  2  0
  3  4  1  0
  4  5  2  0
  5  6  1  0
  6  7  2  0
  7  8  1  0
  8  9  2  0
  9 10  1  0
 10 11  1  0
 11 12  1  0
 12 13  2  0
 13 14  1  0
 14 15  1  0
 14 16  2  0
 16 17  1  0
 17 18  1  0
 17 19  2  0
 10 20  1  0
 20 21  2  0
 20 22  1  0
 22 23  1  0
 23 24  2  0
 24 25  1  0
 25 26  2  0
 26 27  1  0
 27 28  2  0
 28 29  1  0
 29 30  2  0
 30 31  1  0
 31 32  2  0
  9 33  1  0
 33 34  2  0
  5  1  1  0
 34  6  1  0
 19 12  1  0
 32 23  1  0
 32 27  1  0
  1 35  1  0
  2 36  1  0
  4 37  1  0
  7 38  1  0
  8 39  1  0
 11 40  1  0
 11 41  1  0
 13 42  1  0
 16 43  1  0
 19 44  1  0
 22 45  1  0
 22 46  1  0
 24 47  1  0
 26 48  1  0
 28 49  1  0
 29 50  1  0
 30 51  1  0
 31 52  1  0
 33 53  1  0
 34 54  1  0
M  END
>  <ScrubInfo>  (3) 
{"isomerGroup": 4, "isomerId": 1, "confId": 0, "nr_conformers:": 1, "nr_isomers:": 2}

$$$$
Compound_1
     RDKit          3D

 51 55  0  0  0  0  0  0  0  0999 V2000
   -4.2998    3.2638    1.4024 Cl  0  0  0  0  0  0  0  0  0  0  0  0
   -2.5841    3.3515    1.3062 C   0  0  0  0  0  0  0  0  0  0  0  0
   -1.8686    3.9781    2.3232 C   0  0  0  0  0  0  0  0  0  0  0  0
   -0.4798    4.0592    2.2405 C   0  0  0  0  0  0  0  0  0  0  0  0
    0.1884    3.5060    1.1459 C   0  0  0  0  0  0  0  0  0  0  0  0
   -0.5213    2.8548    0.1239 C   0  0  0  0  0  0  0  0  0  0  0  0
    0.2105    2.2613   -1.0624 C   0  0  0  0  0  0  0  0  0  0  0  0
    0.1874    0.7885   -1.0999 N   0  0  0  0  0  0  0  0  0  0  0  0
   -0.8540    0.1664   -1.8030 C   0  0  0  0  0  0  0  0  0  0  0  0
   -1.6721    0.8194   -2.4551 O   0  0  0  0  0  0  0  0  0  0  0  0
   -0.9868   -1.3486   -1.6474 C   0  0  0  0  0  0  0  0  0  0  0  0
   -2.4116   -1.7699   -1.7212 C   0  0  0  0  0  0  0  0  0  0  0  0
   -2.9442   -2.5391   -2.6529 N   0  0  0  0  0  0  0  0  0  0  0  0
   -4.2779   -2.7107   -2.3632 N   0  0  0  0  0  0  0  0  0  0  0  0
   -4.5355   -2.0556   -1.2534 C   0  0  0  0  0  0  0  0  0  0  0  0
   -5.7213   -1.8832   -0.4885 C   0  0  0  0  0  0  0  0  0  0  0  0
   -5.6767   -1.1709    0.6546 C   0  0  0  0  0  0  0  0  0  0  0  0
   -4.4378   -0.5724    1.1296 C   0  0  0  0  0  0  0  0  0  0  0  0
   -3.3181   -0.7238    0.4011 C   0  0  0  0  0  0  0  0  0  0  0  0
   -3.3752   -1.4530   -0.7871 N   0  0  0  0  0  0  0  0  0  0  0  0
    1.3804    0.1179   -0.7002 C   0  0  0  0  0  0  0  0  0  0  0  0
    1.9470    0.3694    0.5518 C   0  0  0  0  0  0  0  0  0  0  0  0
    3.1266   -0.2744    0.9462 C   0  0  0  0  0  0  0  0  0  0  0  0
    3.7745   -1.1725    0.0898 C   0  0  0  0  0  0  0  0  0  0  0  0
    3.2138   -1.4115   -1.1703 C   0  0  0  0  0  0  0  0  0  0  0  0
    2.0319   -0.7705   -1.5626 C   0  0  0  0  0  0  0  0  0  0  0  0
    4.9964   -1.8355    0.5136 C   0  0  0  0  0  0  0  0  0  0  0  0
    5.4794   -2.1476    1.8072 C   0  0  0  0  0  0  0  0  0  0  0  0
    6.6688   -2.7542    1.7852 N   0  0  0  0  0  0  0  0  0  0  0  0
    6.9549   -2.8359    0.4769 N   0  0  0  0  0  0  0  0  0  0  0  0
    5.9891   -2.2984   -0.3251 C   0  0  0  0  0  0  0  0  0  0  0  0
   -1.9211    2.7966    0.2110 C   0  0  0  0  0  0  0  0  0  0  0  0
   -2.3860    4.4132    3.1741 H   0  0  0  0  0  0  0  0  0  0  0  0
    0.0822    4.5596    3.0256 H   0  0  0  0  0  0  0  0  0  0  0  0
    1.2727    3.5923    1.0952 H   0  0  0  0  0  0  0  0  0  0  0  0
    1.2523    2.6081   -1.0807 H   0  0  0  0  0  0  0  0  0  0  0  0
   -0.2387    2.6623   -1.9799 H   0  0  0  0  0  0  0  0  0  0  0  0
   -0.4341   -1.8291   -2.4607 H   0  0  0  0  0  0  0  0  0  0  0  0
   -0.5742   -1.6856   -0.6912 H   0  0  0  0  0  0  0  0  0  0  0  0
   -6.6410   -2.3310   -0.8470 H   0  0  0  0  0  0  0  0  0  0  0  0
   -6.5722   -1.0238    1.2513 H   0  0  0  0  0  0  0  0  0  0  0  0
   -4.4489   -0.0109    2.0581 H   0  0  0  0  0  0  0  0  0  0  0  0
   -2.3680   -0.3016    0.6991 H   0  0  0  0  0  0  0  0  0  0  0  0
    1.4642    1.0343    1.2607 H   0  0  0  0  0  0  0  0  0  0  0  0
    3.5315   -0.0553    1.9319 H   0  0  0  0  0  0  0  0  0  0  0  0
    3.6853   -2.1005   -1.8675 H   0  0  0  0  0  0  0  0  0  0  0  0
    1.6635   -0.9494   -2.5699 H   0  0  0  0  0  0  0  0  0  0  0  0
    5.0116   -1.9619    2.7654 H   0  0  0  0  0  0  0  0  0  0  0  0
    7.8310   -3.2683    0.2020 H   0  0  0  0  0  0  0  0  0  0  0  0
    6.1065   -2.2888   -1.3991 H   0  0  0  0  0  0  0  0  0  0  0  0
   -2.5008    2.3317   -0.5841 H   0  0  0  0  0  0  0  0  0  0  0  0
  1  2  1  0
  2  3  2  0
  3  4  1  0
  4  5  2  0
  5  6  1  0
  6  7  1  0
  7  8  1  0
  8  9  1  0
  9 10  2  0
  9 11  1  0
 11 12  1  0
 12 13  2  0
 13 14  1  0
 14 15  2  0
 15 16  1  0
 16 17  2  0
 17 18  1  0
 18 19  2  0
 19 20  1  0
  8 21  1  0
 21 22  2  0
 22 23  1  0
 23 24  2  0
 24 25  1  0
 25 26  2  0
 24 27  1  0
 27 28  1  0
 28 29  2  0
 29 30  1  0
 30 31  1  0
  6 32  2  0
 32  2  1  0
 20 12  1  0
 26 21  1  0
 31 27  2  0
 20 15  1  0
  3 33  1  0
  4 34  1  0
  5 35  1  0
  7 36  1  0
  7 37  1  0
 11 38  1  0
 11 39  1  0
 16 40  1  0
 17 41  1  0
 18 42  1  0
 19 43  1  0
 22 44  1  0
 23 45  1  0
 25 46  1  0
 26 47  1  0
 28 48  1  0
 30 49  1  0
 31 50  1  0
 32 51  1  0
M  END
>  <ScrubInfo>  (4) 
{"isomerGroup": 2, "isomerId": 0, "confId": 0, "nr_conformers:": 1, "nr_isomers:": 1}

$$$$
Compound_4
     RDKit          3D

 52 56  0  0  0  0  0  0  0  0999 V2000
   -1.9357    5.5398   -2.5606 Cl  0  0  0  0  0  0  0  0  0  0  0  0
   -0.7300    4.4925   -1.9192 C   0  0  0  0  0  0  0  0  0  0  0  0
    0.4788    4.3358   -2.5916 C   0  0  0  0  0  0  0  0  0  0  0  0
    1.4546    3.4921   -2.0647 C   0  0  0  0  0  0  0  0  0  0  0  0
    1.2156    2.8039   -0.8730 C   0  0  0  0  0  0  0  0  0  0  0  0
   -0.0084    2.9363   -0.1983 C   0  0  0  0  0  0  0  0  0  0  0  0
   -0.2775    2.1918    1.0949 C   0  0  0  0  0  0  0  0  0  0  0  0
   -0.1644    0.7313    0.9622 N   0  0  0  0  0  0  0  0  0  0  0  0
    1.0787    0.1588    1.2425 C   0  0  0  0  0  0  0  0  0  0  0  0
    1.9500    0.7546    1.8841 O   0  0  0  0  0  0  0  0  0  0  0  0
    1.3886   -1.2035    0.6132 C   0  0  0  0  0  0  0  0  0  0  0  0
    2.5213   -1.0596   -0.3503 C   0  0  0  0  0  0  0  0  0  0  0  0
    2.5019   -0.8931   -1.7212 C   0  0  0  0  0  0  0  0  0  0  0  0
    3.7662   -0.7957   -2.2340 N   0  0  0  0  0  0  0  0  0  0  0  0
    4.5702   -0.8975   -1.1974 C   0  0  0  0  0  0  0  0  0  0  0  0
    5.9916   -0.8723   -1.1130 C   0  0  0  0  0  0  0  0  0  0  0  0
    6.5944   -0.9937    0.0853 C   0  0  0  0  0  0  0  0  0  0  0  0
    5.8246   -1.1462    1.3090 C   0  0  0  0  0  0  0  0  0  0  0  0
    4.4830   -1.1737    1.2366 C   0  0  0  0  0  0  0  0  0  0  0  0
    3.8598   -1.0533   -0.0071 N   0  0  0  0  0  0  0  0  0  0  0  0
   -1.3698   -0.0237    0.8210 C   0  0  0  0  0  0  0  0  0  0  0  0
   -2.4046    0.4171   -0.0097 C   0  0  0  0  0  0  0  0  0  0  0  0
   -3.5948   -0.3131   -0.1288 C   0  0  0  0  0  0  0  0  0  0  0  0
   -3.7846   -1.4979    0.5903 C   0  0  0  0  0  0  0  0  0  0  0  0
   -2.7596   -1.9313    1.4379 C   0  0  0  0  0  0  0  0  0  0  0  0
   -1.5692   -1.2015    1.5541 C   0  0  0  0  0  0  0  0  0  0  0  0
   -5.0258   -2.2422    0.4622 C   0  0  0  0  0  0  0  0  0  0  0  0
   -6.3318   -1.8135    0.1244 C   0  0  0  0  0  0  0  0  0  0  0  0
   -7.2155   -2.8145    0.0959 N   0  0  0  0  0  0  0  0  0  0  0  0
   -6.4794   -3.8914    0.4101 N   0  0  0  0  0  0  0  0  0  0  0  0
   -5.1642   -3.6034    0.6384 C   0  0  0  0  0  0  0  0  0  0  0  0
   -0.9750    3.8057   -0.7289 C   0  0  0  0  0  0  0  0  0  0  0  0
    0.6699    4.8691   -3.5186 H   0  0  0  0  0  0  0  0  0  0  0  0
    2.4059    3.3690   -2.5778 H   0  0  0  0  0  0  0  0  0  0  0  0
    2.0038    2.1670   -0.4748 H   0  0  0  0  0  0  0  0  0  0  0  0
    0.4329    2.5588    1.8460 H   0  0  0  0  0  0  0  0  0  0  0  0
   -1.2706    2.4417    1.4899 H   0  0  0  0  0  0  0  0  0  0  0  0
    1.6232   -1.9128    1.4135 H   0  0  0  0  0  0  0  0  0  0  0  0
    0.5377   -1.6077    0.0595 H   0  0  0  0  0  0  0  0  0  0  0  0
    1.6342   -0.8365   -2.3672 H   0  0  0  0  0  0  0  0  0  0  0  0
    6.5605   -0.7543   -2.0278 H   0  0  0  0  0  0  0  0  0  0  0  0
    7.6771   -0.9742    0.1648 H   0  0  0  0  0  0  0  0  0  0  0  0
    6.3491   -1.2246    2.2552 H   0  0  0  0  0  0  0  0  0  0  0  0
    3.8545   -1.2701    2.1118 H   0  0  0  0  0  0  0  0  0  0  0  0
   -2.2972    1.3102   -0.6168 H   0  0  0  0  0  0  0  0  0  0  0  0
   -4.3608    0.0539   -0.8088 H   0  0  0  0  0  0  0  0  0  0  0  0
   -2.8795   -2.8292    2.0397 H   0  0  0  0  0  0  0  0  0  0  0  0
   -0.8254   -1.5542    2.2642 H   0  0  0  0  0  0  0  0  0  0  0  0
   -6.6770   -0.8117   -0.0967 H   0  0  0  0  0  0  0  0  0  0  0  0
   -6.9405   -4.7948    0.4470 H   0  0  0  0  0  0  0  0  0  0  0  0
   -4.4625   -4.3860    0.8877 H   0  0  0  0  0  0  0  0  0  0  0  0
   -1.9242    3.9476   -0.2173 H   0  0  0  0  0  0  0  0  0  0  0  0
  1  2  1  0
  2  3  2  0
  3  4  1  0
  4  5  2  0
  5  6  1  0
  6  7  1  0
  7  8  1  0
  8  9  1  0
  9 10  2  0
  9 11  1  0
 11 12  1  0
 12 13  2  0
 13 14  1  0
 14 15  2  0
 15 16  1  0
 16 17  2  0
 17 18  1  0
 18 19  2  0
 19 20  1  0
  8 21  1  0
 21 22  2  0
 22 23  1  0
 23 24  2  0
 24 25  1  0
 25 26  2  0
 24 27  1  0
 27 28  1  0
 28 29  2  0
 29 30  1  0
 30 31  1  0
  6 32  2  0
 32  2  1  0
 20 12  1  0
 26 21  1  0
 31 27  2  0
 20 15  1  0
  3 33  1  0
  4 34  1  0
  5 35  1  0
  7 36  1  0
  7 37  1  0
 11 38  1  0
 11 39  1  0
 13 40  1  0
 16 41  1  0
 17 42  1  0
 18 43  1  0
 19 44  1  0
 22 45  1  0
 23 46  1  0
 25 47  1  0
 26 48  1  0
 28 49  1  0
 30 50  1  0
 31 51  1  0
 32 52  1  0
M  END
>  <ScrubInfo>  (5) 
{"isomerGroup": 1, "isomerId": 0, "confId": 0, "nr_conformers:": 1, "nr_isomers:": 1}

$$$$
Compound_83
     RDKit          3D

 50 53  0  0  0  0  0  0  0  0999 V2000
   -5.4653   -1.6114    0.9536 C   0  0  0  0  0  0  0  0  0  0  0  0
   -6.3820   -1.2360    2.0447 N   0  0  0  0  0  0  0  0  0  0  0  0
   -5.3774   -0.2842    2.5457 C   0  0  0  0  0  0  0  0  0  0  0  0
   -4.7674   -0.2389    1.1210 C   0  0  0  0  0  0  0  0  0  0  0  0
   -3.1951   -0.1103    0.9906 C   0  0  0  0  0  0  0  0  0  0  0  0
   -2.5099    1.0119    1.4897 C   0  0  0  0  0  0  0  0  0  0  0  0
   -2.3924   -1.0786    0.3729 C   0  0  0  0  0  0  0  0  0  0  0  0
   -1.1122    1.1463    1.4011 C   0  0  0  0  0  0  0  0  0  0  0  0
   -0.9950   -0.9546    0.2957 C   0  0  0  0  0  0  0  0  0  0  0  0
   -0.3148    0.1503    0.8234 C   0  0  0  0  0  0  0  0  0  0  0  0
    1.1271    0.2700    0.7141 N   0  0  0  0  0  0  0  0  0  0  0  0
    1.7585    1.5725    0.9869 C   0  0  0  0  0  0  0  0  0  0  0  0
    1.9325   -0.8644    0.4737 C   0  0  0  0  0  0  0  0  0  0  0  0
    1.6829    2.5806   -0.1345 C   0  0  0  0  0  0  0  0  0  0  0  0
    1.5585   -2.0176    0.7024 O   0  0  0  0  0  0  0  0  0  0  0  0
    3.3473   -0.6156   -0.0621 C   0  0  0  0  0  0  0  0  0  0  0  0
    2.2752    3.8347    0.0495 C   0  0  0  0  0  0  0  0  0  0  0  0
    1.0636    2.3478   -1.3694 C   0  0  0  0  0  0  0  0  0  0  0  0
    3.8502   -1.7156   -0.9614 C   0  0  0  0  0  0  0  0  0  0  0  0
    2.2798    4.8263   -0.8720 N   0  0  0  0  0  0  0  0  0  0  0  0
    1.0527    3.3535   -2.3290 C   0  0  0  0  0  0  0  0  0  0  0  0
    4.3017   -2.9264   -0.4352 C   0  0  0  0  0  0  0  0  0  0  0  0
    3.8689   -1.5701   -2.3534 C   0  0  0  0  0  0  0  0  0  0  0  0
    1.6636    4.5626   -2.0473 C   0  0  0  0  0  0  0  0  0  0  0  0
    0.4469    3.1504   -3.5042 F   0  0  0  0  0  0  0  0  0  0  0  0
    4.7730   -3.9521   -1.1829 N   0  0  0  0  0  0  0  0  0  0  0  0
    4.3424   -2.6131   -3.1384 C   0  0  0  0  0  0  0  0  0  0  0  0
    4.7829   -3.7701   -2.5241 C   0  0  0  0  0  0  0  0  0  0  0  0
    4.3717   -2.4946   -4.4726 F   0  0  0  0  0  0  0  0  0  0  0  0
   -4.8702   -2.4931    1.2141 H   0  0  0  0  0  0  0  0  0  0  0  0
   -5.9703   -1.7760   -0.0021 H   0  0  0  0  0  0  0  0  0  0  0  0
   -7.2520   -0.7922    1.7191 H   0  0  0  0  0  0  0  0  0  0  0  0
   -6.6050   -2.0036    2.6898 H   0  0  0  0  0  0  0  0  0  0  0  0
   -5.8050    0.6528    2.9112 H   0  0  0  0  0  0  0  0  0  0  0  0
   -4.7417   -0.7299    3.3184 H   0  0  0  0  0  0  0  0  0  0  0  0
   -5.2587    0.5277    0.5023 H   0  0  0  0  0  0  0  0  0  0  0  0
   -3.0684    1.8204    1.9658 H   0  0  0  0  0  0  0  0  0  0  0  0
   -2.8339   -1.9651   -0.0813 H   0  0  0  0  0  0  0  0  0  0  0  0
   -0.6917    2.0530    1.8258 H   0  0  0  0  0  0  0  0  0  0  0  0
   -0.4666   -1.7537   -0.2201 H   0  0  0  0  0  0  0  0  0  0  0  0
    2.8163    1.4169    1.2313 H   0  0  0  0  0  0  0  0  0  0  0  0
    1.3383    1.9947    1.9070 H   0  0  0  0  0  0  0  0  0  0  0  0
    3.3849    0.3193   -0.6280 H   0  0  0  0  0  0  0  0  0  0  0  0
    4.0248   -0.5084    0.7933 H   0  0  0  0  0  0  0  0  0  0  0  0
    2.7889    4.0910    0.9758 H   0  0  0  0  0  0  0  0  0  0  0  0
    0.5860    1.4010   -1.6104 H   0  0  0  0  0  0  0  0  0  0  0  0
    4.2951   -3.1151    0.6367 H   0  0  0  0  0  0  0  0  0  0  0  0
    3.5270   -0.6608   -2.8386 H   0  0  0  0  0  0  0  0  0  0  0  0
    1.6727    5.3669   -2.7767 H   0  0  0  0  0  0  0  0  0  0  0  0
    5.1616   -4.5993   -3.1117 H   0  0  0  0  0  0  0  0  0  0  0  0
  1  2  1  0
  2  3  1  0
  4  1  1  0
  5  4  1  0
  3  4  1  0
  6  5  2  0
  5  7  1  0
  8  6  1  0
  7  9  2  0
 10  8  2  0
  9 10  1  0
 11 10  1  0
 12 11  1  0
 11 13  1  0
 14 12  1  0
 13 15  2  0
 13 16  1  0
 17 14  2  0
 14 18  1  0
 16 19  1  0
 20 17  1  0
 18 21  2  0
 19 22  2  0
 23 19  1  0
 24 20  2  0
 25 21  1  0
 21 24  1  0
 22 26  1  0
 27 23  2  0
 26 28  2  0
 28 27  1  0
 27 29  1  0
  1 30  1  0
  1 31  1  0
  2 32  1  0
  2 33  1  0
  3 34  1  0
  3 35  1  0
  4 36  1  0
  6 37  1  0
  7 38  1  0
  8 39  1  0
  9 40  1  0
 12 41  1  0
 12 42  1  0
 16 43  1  0
 16 44  1  0
 17 45  1  0
 18 46  1  0
 22 47  1  0
 23 48  1  0
 24 49  1  0
 28 50  1  0
M  CHG  1   2   1
M  END
>  <ScrubInfo>  (6) 
{"isomerGroup": 0, "isomerId": 0, "confId": 0, "nr_conformers:": 1, "nr_isomers:": 1}

$$$$
