
     RDKit          3D

 52 55  0  0  0  0  0  0  0  0999 V2000
   24.6140   -1.9330   17.3520 C   0  0  0  0  0  0  0  0  0  0  0  0
   25.3920   -2.5980   16.3500 C   0  0  0  0  0  0  0  0  0  0  0  0
   26.1760   -3.8580   16.7000 C   0  0  0  0  0  0  0  0  0  0  0  0
   25.6600   -4.9170   17.4780 C   0  0  0  0  0  0  0  0  0  0  0  0
   24.2290   -4.8980   18.0060 C   0  0  0  0  0  0  0  0  0  0  0  0
   26.4700   -6.0260   17.7750 C   0  0  0  0  0  0  0  0  0  0  0  0
   23.3160    0.9850   15.4830 O   0  0  0  0  0  0  0  0  0  0  0  0
   23.9970   -0.1920   15.7460 C   0  0  0  0  0  0  0  0  0  0  0  0
   23.0920   -0.0860   18.0460 C   0  0  0  0  0  0  0  0  0  0  0  0
   21.7030   -0.0130   17.8650 C   0  0  0  0  0  0  0  0  0  0  0  0
   21.4970    1.1330   19.9940 C   0  0  0  0  0  0  0  0  0  0  0  0
   22.8890    1.0610   20.1740 C   0  0  0  0  0  0  0  0  0  0  0  0
   23.6870    0.4390   19.2010 C   0  0  0  0  0  0  0  0  0  0  0  0
   25.1770    3.0420   11.5990 O   0  0  0  0  0  0  0  0  0  0  0  0
   27.7930   -6.0760   17.3080 C   0  0  0  0  0  0  0  0  0  0  0  0
   28.3100   -5.0260   16.5430 C   0  0  0  0  0  0  0  0  0  0  0  0
   27.5030   -3.9220   16.2470 C   0  0  0  0  0  0  0  0  0  0  0  0
   25.4820   -1.9970   15.0410 C   0  0  0  0  0  0  0  0  0  0  0  0
   24.7670   -0.8160   14.7570 C   0  0  0  0  0  0  0  0  0  0  0  0
   24.8900   -0.2410   13.3450 C   0  0  0  0  0  0  0  0  0  0  0  0
   24.9420   -1.1260   12.2490 C   0  0  0  0  0  0  0  0  0  0  0  0
   25.0660   -0.5960   10.9460 C   0  0  0  0  0  0  0  0  0  0  0  0
   25.1550    0.7900   10.7400 C   0  0  0  0  0  0  0  0  0  0  0  0
   25.1060    1.6680   11.8350 C   0  0  0  0  0  0  0  0  0  0  0  0
   24.8820    3.8760   12.6760 C   0  0  0  0  0  0  0  0  0  0  0  0
   24.8860    5.2960   12.1200 C   0  0  0  0  0  0  0  0  0  0  0  0
   24.0640    5.2950   10.8350 C   0  0  0  0  0  0  0  0  0  0  0  0
   24.9720    1.1550   13.1370 C   0  0  0  0  0  0  0  0  0  0  0  0
   23.9070   -0.7310   17.0260 N   0  0  0  0  0  0  0  0  0  0  0  0
   20.9040    0.5950   18.8340 N   0  0  0  0  0  0  0  0  0  0  0  0
   23.1640   -4.8690   18.3950 N   0  0  0  0  0  0  0  0  0  0  0  0
   25.1520   -1.6770    9.5440 Cl  0  0  0  0  0  0  0  0  0  0  0  0
   24.5596   -2.3450   18.3705 H   0  0  0  0  0  0  0  0  0  0  0  0
   26.0671   -6.8559   18.3741 H   0  0  0  0  0  0  0  0  0  0  0  0
   21.2435   -0.4351   16.9591 H   0  0  0  0  0  0  0  0  0  0  0  0
   20.8687    1.6104   20.7604 H   0  0  0  0  0  0  0  0  0  0  0  0
   23.3517    1.4908   21.0746 H   0  0  0  0  0  0  0  0  0  0  0  0
   24.7750    0.3640   19.3446 H   0  0  0  0  0  0  0  0  0  0  0  0
   28.4252   -6.9445   17.5448 H   0  0  0  0  0  0  0  0  0  0  0  0
   29.3460   -5.0677   16.1757 H   0  0  0  0  0  0  0  0  0  0  0  0
   27.9139   -3.0934   15.6515 H   0  0  0  0  0  0  0  0  0  0  0  0
   26.1086   -2.4606   14.2649 H   0  0  0  0  0  0  0  0  0  0  0  0
   24.8868   -2.2133   12.4064 H   0  0  0  0  0  0  0  0  0  0  0  0
   25.2632    1.1884    9.7204 H   0  0  0  0  0  0  0  0  0  0  0  0
   23.8930    3.6303   13.0902 H   0  0  0  0  0  0  0  0  0  0  0  0
   25.6137    3.7591   13.4889 H   0  0  0  0  0  0  0  0  0  0  0  0
   24.4377    5.9854   12.8506 H   0  0  0  0  0  0  0  0  0  0  0  0
   25.9154    5.6270   11.9178 H   0  0  0  0  0  0  0  0  0  0  0  0
   22.9928    5.2937   11.0850 H   0  0  0  0  0  0  0  0  0  0  0  0
   24.3021    6.1934   10.2467 H   0  0  0  0  0  0  0  0  0  0  0  0
   24.3043    4.3971   10.2467 H   0  0  0  0  0  0  0  0  0  0  0  0
   24.9309    1.8412   13.9957 H   0  0  0  0  0  0  0  0  0  0  0  0
  2  1  2  0
  3  2  1  0
  4  3  2  0
  5  4  1  0
  6  4  1  0
  8  7  2  0
 10  9  2  0
 12 11  1  0
 13 12  2  0
 13  9  1  0
 15  6  2  0
 16 15  1  0
 17  3  1  0
 17 16  2  0
 18  2  1  0
 19 18  2  0
 19  8  1  0
 20 19  1  0
 21 20  2  0
 22 21  1  0
 23 22  2  0
 24 23  1  0
 24 14  1  0
 25 14  1  0
 26 25  1  0
 27 26  1  0
 28 24  2  0
 28 20  1  0
 29  8  1  0
 29  9  1  0
 29  1  1  0
 30 11  2  0
 30 10  1  0
 31  5  3  0
 32 22  1  0
  1 33  1  0
  6 34  1  0
 10 35  1  0
 11 36  1  0
 12 37  1  0
 13 38  1  0
 15 39  1  0
 16 40  1  0
 17 41  1  0
 18 42  1  0
 21 43  1  0
 23 44  1  0
 25 45  1  0
 25 46  1  0
 26 47  1  0
 26 48  1  0
 27 49  1  0
 27 50  1  0
 27 51  1  0
 28 52  1  0
M  END
$$$$
