XF1
  CCTOOLS-0919241035

 52 55  0  0  0  0  0  0  0  0999 V2000
   -2.7160   -0.3130    0.1500 C   0  0  0  0  0
   -2.2270    0.9700    0.0430 C   0  0  0  0  0
   -3.1560    2.1060   -0.1630 C   0  0  0  0  0
   -3.7500    2.3170   -1.4210 C   0  0  0  0  0
   -3.4600    1.4350   -2.5120 C   0  0  0  0  0
   -4.6230    3.3900   -1.5990 C   0  0  0  0  0
    0.1880   -2.1410    0.5900 O   0  0  0  0  0
   -0.5460   -1.1810    0.4260 C   0  0  0  0  0
   -2.4040   -2.6540    0.4490 C   0  0  0  0  0
   -3.1790   -3.0110    1.5440 C   0  0  0  0  0
   -3.4720   -5.1430    0.7200 C   0  0  0  0  0
   -2.7100   -4.8630   -0.3990 C   0  0  0  0  0
   -2.1630   -3.5990   -0.5460 C   0  0  0  0  0
    4.5030   -0.5290   -1.4280 O   0  0  0  0  0
   -4.8990    4.2360   -0.5450 C   0  0  0  0  0
   -4.3140    4.0280    0.6930 C   0  0  0  0  0
   -3.4520    2.9680    0.8900 C   0  0  0  0  0
   -0.8380    1.1980    0.1290 C   0  0  0  0  0
    0.0070    0.1200    0.3220 C   0  0  0  0  0
    1.4720    0.3210    0.4120 C   0  0  0  0  0
    2.0140    1.0410    1.4770 C   0  0  0  0  0
    3.3800    1.2270    1.5590 C   0  0  0  0  0
    4.2130    0.7020    0.5870 C   0  0  0  0  0
    3.6810   -0.0150   -0.4760 C   0  0  0  0  0
    5.9040   -0.2920   -1.2730 C   0  0  0  0  0
    6.6620   -0.9420   -2.4320 C   0  0  0  0  0
    8.1620   -0.6880   -2.2650 C   0  0  0  0  0
    2.3120   -0.2120   -0.5630 C   0  0  0  0  0
   -1.8770   -1.3610    0.3430 N   0  0  0  0  0
   -3.6810   -4.2260    1.6440 N   0  0  0  0  0
   -3.2300    0.7350   -3.3770 N   0  0  0  0  0
    4.0540    2.1230    2.8850 CL  0  0  0  0  0
   -3.7800   -0.4860    0.0830 H   0  0  0  0  0
   -5.0830    3.5590   -2.5620 H   0  0  0  0  0
   -3.3720   -2.2870    2.3220 H   0  0  0  0  0
   -3.9010   -6.1270    0.8400 H   0  0  0  0  0
   -2.5440   -5.6200   -1.1510 H   0  0  0  0  0
   -1.5640   -3.3520   -1.4100 H   0  0  0  0  0
   -5.5760    5.0660   -0.6860 H   0  0  0  0  0
   -4.5370    4.6970    1.5110 H   0  0  0  0  0
   -3.0030    2.8100    1.8590 H   0  0  0  0  0
   -0.4400    2.1990    0.0470 H   0  0  0  0  0
    1.3660    1.4520    2.2370 H   0  0  0  0  0
    5.2800    0.8550    0.6520 H   0  0  0  0  0
    6.0930    0.7810   -1.2700 H   0  0  0  0  0
    6.2420   -0.7230   -0.3300 H   0  0  0  0  0
    6.4730   -2.0150   -2.4340 H   0  0  0  0  0
    6.3240   -0.5110   -3.3740 H   0  0  0  0  0
    8.3510    0.3850   -2.2630 H   0  0  0  0  0
    8.5010   -1.1190   -1.3220 H   0  0  0  0  0
    8.7030   -1.1510   -3.0910 H   0  0  0  0  0
    1.8980   -0.7740   -1.3870 H   0  0  0  0  0
  1 33  1  0  0  0
  2  1  2  0  0  0
  2  3  1  0  0  0
  3  4  1  0  0  0
  4  5  1  0  0  0
  4  6  2  0  0  0
  5 31  3  0  0  0
  6 34  1  0  0  0
  7  8  2  0  0  0
  8 29  1  0  0  0
  9 13  1  0  0  0
 10  9  2  0  0  0
 10 30  1  0  0  0
 10 35  1  0  0  0
 11 12  1  0  0  0
 11 36  1  0  0  0
 12 37  1  0  0  0
 13 12  2  0  0  0
 13 38  1  0  0  0
 14 25  1  0  0  0
 14 24  1  0  0  0
 15  6  1  0  0  0
 15 39  1  0  0  0
 16 15  2  0  0  0
 16 40  1  0  0  0
 17  3  2  0  0  0
 17 16  1  0  0  0
 17 41  1  0  0  0
 18  2  1  0  0  0
 18 42  1  0  0  0
 19  8  1  0  0  0
 19 18  2  0  0  0
 20 19  1  0  0  0
 21 20  1  0  0  0
 21 43  1  0  0  0
 22 21  2  0  0  0
 23 24  2  0  0  0
 23 22  1  0  0  0
 23 44  1  0  0  0
 24 28  1  0  0  0
 25 45  1  0  0  0
 25 46  1  0  0  0
 26 25  1  0  0  0
 26 47  1  0  0  0
 26 48  1  0  0  0
 27 26  1  0  0  0
 27 49  1  0  0  0
 27 50  1  0  0  0
 27 51  1  0  0  0
 28 20  2  0  0  0
 28 52  1  0  0  0
 29  9  1  0  0  0
 29  1  1  0  0  0
 30 11  2  0  0  0
 32 22  1  0  0  0
M  END
$$$$
