Y6J


 32 36  0  0  0  0  0  0  0  0999 V2000
   25.7036   -1.5723   15.4759 N   0  0  0  0  0  0  0  0  0  0  0  0
   25.4591   -0.4578   16.1952 C   0  0  0  0  0  0  0  0  0  0  0  0
   26.1083   -0.2259   17.1928 O   0  0  0  0  0  0  0  0  0  0  0  0
   26.6372   -2.5098   15.9344 C   0  0  0  0  0  0  0  0  0  0  0  0
   28.4852   -4.3617   16.8422 C   0  0  0  0  0  0  0  0  0  0  0  0
   27.9401   -2.1133   16.2088 C   0  0  0  0  0  0  0  0  0  0  0  0
   28.8612   -3.0372   16.6616 C   0  0  0  0  0  0  0  0  0  0  0  0
   27.1811   -4.7566   16.5716 C   0  0  0  0  0  0  0  0  0  0  0  0
   26.2606   -3.8334   16.1199 C   0  0  0  0  0  0  0  0  0  0  0  0
   30.3110   -5.8374   16.4448 C   0  0  0  0  0  0  0  0  0  0  0  0
   29.4202   -5.2983   17.3005 N   0  0  0  0  0  0  0  0  0  0  0  0
   30.3583   -5.4500   15.2960 O   0  0  0  0  0  0  0  0  0  0  0  0
   29.4266   -5.5587   18.2348 H   0  0  0  0  0  0  0  0  0  0  0  0
   31.2466   -6.9206   16.9142 C   0  0  0  0  0  0  0  0  0  0  0  0
   32.4228   -6.5040   17.7985 C   0  0  0  0  0  0  0  0  0  0  0  0
   32.6679   -6.9211   16.3470 C   0  0  0  0  0  0  0  0  0  0  0  0
   24.3796    0.4991   15.7587 C   0  0  0  0  0  0  0  0  0  0  0  0
   22.6197    1.6152   18.7588 C   0  0  0  0  0  0  0  0  0  0  0  0
   21.7579    0.7241   18.2293 N   0  0  0  0  0  0  0  0  0  0  0  0
   23.7422    1.6767   17.9160 C   0  0  0  0  0  0  0  0  0  0  0  0
   24.7964    2.5305   18.2257 C   0  0  0  0  0  0  0  0  0  0  0  0
   24.7344    3.3060   19.3495 C   0  0  0  0  0  0  0  0  0  0  0  0
   23.6276    3.2503   20.1861 C   0  0  0  0  0  0  0  0  0  0  0  0
   22.5816    2.4212   19.9055 C   0  0  0  0  0  0  0  0  0  0  0  0
   23.4996    0.7909   16.8922 N   0  0  0  0  0  0  0  0  0  0  0  0
   22.2407    0.2259   17.1456 N   0  0  0  0  0  0  0  0  0  0  0  0
   24.9910   -1.8009   14.2168 C   0  0  0  0  0  0  0  0  0  0  0  0
   25.5229   -0.8643   13.1618 C   0  0  0  0  0  0  0  0  0  0  0  0
   26.8769   -0.6627   12.9603 C   0  0  0  0  0  0  0  0  0  0  0  0
   27.1780    0.1983   11.9859 C   0  0  0  0  0  0  0  0  0  0  0  0
   24.7238   -0.1721   12.3493 C   0  0  0  0  0  0  0  0  0  0  0  0
   25.6965    0.8093   11.2610 S   0  0  0  0  0  0  0  0  0  0  0  0
 18 24  1  0
 19 18  1  0
  1  4  1  0
  1  2  1  0
 28 27  1  0
  4  9  2  0
  5 11  1  0
  5  8  2  0
 29 28  1  0
 30 32  1  0
 30 29  2  0
 31 28  2  0
  2 17  1  0
 17 25  1  0
 20 18  2  0
 20 21  1  0
 21 22  2  0
 22 23  1  0
 24 23  2  0
 27  1  1  0
  6  7  2  0
  6  4  1  0
  7  5  1  0
 10 11  1  0
 10 14  1  0
 14 16  1  0
 14 15  1  0
 16 15  1  0
  9  8  1  0
 25 20  1  0
 26 25  1  0
 26 19  2  0
 11 13  1  0
  3  2  2  0
 12 10  2  0
 32 31  1  0
M  END
> <minimizedAffinity>
-7.04361

> <CNNscore>
0.7955571413

> <CNNaffinity>
6.7500844002

> <CNN_VS>
5.3700780869

> <CNNaffinity_variance>
0.1565810591

$$$$
Y6J


 32 36  0  0  0  0  0  0  0  0999 V2000
   25.4599   -0.3096   15.9210 N   0  0  0  0  0  0  0  0  0  0  0  0
   24.3010   -0.2710   16.6100 C   0  0  0  0  0  0  0  0  0  0  0  0
   24.0176   -1.1723   17.3701 O   0  0  0  0  0  0  0  0  0  0  0  0
   26.2879   -1.4356   16.0077 C   0  0  0  0  0  0  0  0  0  0  0  0
   27.9270   -3.6608   16.1809 C   0  0  0  0  0  0  0  0  0  0  0  0
   27.6045   -1.2968   16.4287 C   0  0  0  0  0  0  0  0  0  0  0  0
   28.4215   -2.4069   16.5149 C   0  0  0  0  0  0  0  0  0  0  0  0
   26.6091   -3.7994   15.7642 C   0  0  0  0  0  0  0  0  0  0  0  0
   25.7927   -2.6905   15.6786 C   0  0  0  0  0  0  0  0  0  0  0  0
   28.9321   -5.4056   17.4517 C   0  0  0  0  0  0  0  0  0  0  0  0
   28.7565   -4.7859   16.2678 N   0  0  0  0  0  0  0  0  0  0  0  0
   28.3067   -5.0404   18.4251 O   0  0  0  0  0  0  0  0  0  0  0  0
   29.2046   -5.1195   15.4749 H   0  0  0  0  0  0  0  0  0  0  0  0
   29.9047   -6.5502   17.5663 C   0  0  0  0  0  0  0  0  0  0  0  0
   29.5237   -7.7117   18.4854 C   0  0  0  0  0  0  0  0  0  0  0  0
   30.6239   -6.7346   18.9044 C   0  0  0  0  0  0  0  0  0  0  0  0
   23.3590    0.8925   16.4354 C   0  0  0  0  0  0  0  0  0  0  0  0
   23.0169    2.3321   19.7752 C   0  0  0  0  0  0  0  0  0  0  0  0
   21.7484    1.9903   19.4732 N   0  0  0  0  0  0  0  0  0  0  0  0
   23.8264    1.9775   18.6829 C   0  0  0  0  0  0  0  0  0  0  0  0
   25.1952    2.2246   18.7246 C   0  0  0  0  0  0  0  0  0  0  0  0
   25.7458    2.8118   19.8292 C   0  0  0  0  0  0  0  0  0  0  0  0
   24.9511    3.1652   20.9116 C   0  0  0  0  0  0  0  0  0  0  0  0
   23.6072    2.9330   20.8961 C   0  0  0  0  0  0  0  0  0  0  0  0
   22.9848    1.4181   17.7500 N   0  0  0  0  0  0  0  0  0  0  0  0
   21.6965    1.4549   18.3043 N   0  0  0  0  0  0  0  0  0  0  0  0
   25.8499    0.8258   15.0819 C   0  0  0  0  0  0  0  0  0  0  0  0
   25.4979    0.5328   13.6455 C   0  0  0  0  0  0  0  0  0  0  0  0
   24.5748   -0.4340   13.2881 C   0  0  0  0  0  0  0  0  0  0  0  0
   24.3793   -0.5660   11.9744 C   0  0  0  0  0  0  0  0  0  0  0  0
   26.0490    1.1896   12.6244 C   0  0  0  0  0  0  0  0  0  0  0  0
   25.4002    0.5754   11.1092 S   0  0  0  0  0  0  0  0  0  0  0  0
 18 24  1  0
 19 18  1  0
  1  4  1  0
  1  2  1  0
 28 27  1  0
  4  9  2  0
  5 11  1  0
  5  8  2  0
 29 28  1  0
 30 32  1  0
 30 29  2  0
 31 28  2  0
  2 17  1  0
 17 25  1  0
 20 18  2  0
 20 21  1  0
 21 22  2  0
 22 23  1  0
 24 23  2  0
 27  1  1  0
  6  7  2  0
  6  4  1  0
  7  5  1  0
 10 11  1  0
 10 14  1  0
 14 16  1  0
 14 15  1  0
 16 15  1  0
  9  8  1  0
 25 20  1  0
 26 25  1  0
 26 19  2  0
 11 13  1  0
  3  2  2  0
 12 10  2  0
 32 31  1  0
M  END
> <minimizedAffinity>
-7.04767

> <CNNscore>
0.5030957460

> <CNNaffinity>
6.5469646454

> <CNN_VS>
3.2937500477

> <CNNaffinity_variance>
0.1026847363

$$$$
Y6J


 32 36  0  0  0  0  0  0  0  0999 V2000
   25.7349   -2.8404   15.0057 N   0  0  0  0  0  0  0  0  0  0  0  0
   25.0069   -1.8120   15.4870 C   0  0  0  0  0  0  0  0  0  0  0  0
   24.8156   -1.7110   16.6801 O   0  0  0  0  0  0  0  0  0  0  0  0
   26.1851   -3.8442   15.8719 C   0  0  0  0  0  0  0  0  0  0  0  0
   27.0780   -5.8278   17.5857 C   0  0  0  0  0  0  0  0  0  0  0  0
   27.5221   -3.8874   16.2472 C   0  0  0  0  0  0  0  0  0  0  0  0
   27.9668   -4.8768   17.1019 C   0  0  0  0  0  0  0  0  0  0  0  0
   25.7404   -5.7814   17.2134 C   0  0  0  0  0  0  0  0  0  0  0  0
   25.2960   -4.7926   16.3600 C   0  0  0  0  0  0  0  0  0  0  0  0
   28.1525   -6.5018   19.6008 C   0  0  0  0  0  0  0  0  0  0  0  0
   27.5300   -6.8314   18.4517 N   0  0  0  0  0  0  0  0  0  0  0  0
   28.2472   -5.3366   19.9257 O   0  0  0  0  0  0  0  0  0  0  0  0
   27.3944   -7.7644   18.2242 H   0  0  0  0  0  0  0  0  0  0  0  0
   28.7310   -7.5791   20.4804 C   0  0  0  0  0  0  0  0  0  0  0  0
   28.7563   -9.0048   19.9274 C   0  0  0  0  0  0  0  0  0  0  0  0
   27.7680   -8.6316   21.0341 C   0  0  0  0  0  0  0  0  0  0  0  0
   24.4320   -0.7884   14.5418 C   0  0  0  0  0  0  0  0  0  0  0  0
   24.2735    2.5379   16.0432 C   0  0  0  0  0  0  0  0  0  0  0  0
   23.2444    1.9006   16.6363 N   0  0  0  0  0  0  0  0  0  0  0  0
   24.8845    1.6325   15.1594 C   0  0  0  0  0  0  0  0  0  0  0  0
   25.9827    2.0335   14.4048 C   0  0  0  0  0  0  0  0  0  0  0  0
   26.4620    3.3076   14.5273 C   0  0  0  0  0  0  0  0  0  0  0  0
   25.8623    4.2073   15.3985 C   0  0  0  0  0  0  0  0  0  0  0  0
   24.7853    3.8390   16.1500 C   0  0  0  0  0  0  0  0  0  0  0  0
   24.1781    0.4574   15.2683 N   0  0  0  0  0  0  0  0  0  0  0  0
   23.1636    0.6895   16.2091 N   0  0  0  0  0  0  0  0  0  0  0  0
   26.0521   -2.9064   13.5773 C   0  0  0  0  0  0  0  0  0  0  0  0
   27.2582   -2.0483   13.2908 C   0  0  0  0  0  0  0  0  0  0  0  0
   27.1739   -0.8545   12.5962 C   0  0  0  0  0  0  0  0  0  0  0  0
   28.3352   -0.2183   12.4292 C   0  0  0  0  0  0  0  0  0  0  0  0
   28.4855   -2.3802   13.6925 C   0  0  0  0  0  0  0  0  0  0  0  0
   29.6288   -1.1476   13.1755 S   0  0  0  0  0  0  0  0  0  0  0  0
 18 24  1  0
 19 18  1  0
  1  4  1  0
  1  2  1  0
 28 27  1  0
  4  9  2  0
  5 11  1  0
  5  8  2  0
 29 28  1  0
 30 32  1  0
 30 29  2  0
 31 28  2  0
  2 17  1  0
 17 25  1  0
 20 18  2  0
 20 21  1  0
 21 22  2  0
 22 23  1  0
 24 23  2  0
 27  1  1  0
  6  7  2  0
  6  4  1  0
  7  5  1  0
 10 11  1  0
 10 14  1  0
 14 16  1  0
 14 15  1  0
 16 15  1  0
  9  8  1  0
 25 20  1  0
 26 25  1  0
 26 19  2  0
 11 13  1  0
  3  2  2  0
 12 10  2  0
 32 31  1  0
M  END
> <minimizedAffinity>
-7.41914

> <CNNscore>
0.3515699804

> <CNNaffinity>
6.2757048607

> <CNN_VS>
2.2063493729

> <CNNaffinity_variance>
0.0884847268

$$$$
Y6J


 32 36  0  0  0  0  0  0  0  0999 V2000
   25.5066   -2.6148   15.3327 N   0  0  0  0  0  0  0  0  0  0  0  0
   24.9708   -1.5669   15.9914 C   0  0  0  0  0  0  0  0  0  0  0  0
   25.0162   -1.5249   17.2025 O   0  0  0  0  0  0  0  0  0  0  0  0
   26.0260   -3.6999   16.0494 C   0  0  0  0  0  0  0  0  0  0  0  0
   27.0556   -5.8441   17.4673 C   0  0  0  0  0  0  0  0  0  0  0  0
   27.3930   -3.7865   16.2816 C   0  0  0  0  0  0  0  0  0  0  0  0
   27.9059   -4.8560   16.9888 C   0  0  0  0  0  0  0  0  0  0  0  0
   25.6883   -5.7547   17.2384 C   0  0  0  0  0  0  0  0  0  0  0  0
   25.1758   -4.6858   16.5324 C   0  0  0  0  0  0  0  0  0  0  0  0
   27.8165   -6.8132   19.5048 C   0  0  0  0  0  0  0  0  0  0  0  0
   27.5766   -6.9290   18.1836 N   0  0  0  0  0  0  0  0  0  0  0  0
   27.5031   -5.7978   20.0905 O   0  0  0  0  0  0  0  0  0  0  0  0
   27.7646   -7.7645   17.7282 H   0  0  0  0  0  0  0  0  0  0  0  0
   28.4738   -7.9431   20.2534 C   0  0  0  0  0  0  0  0  0  0  0  0
   28.9468   -7.6641   21.6808 C   0  0  0  0  0  0  0  0  0  0  0  0
   29.9691   -7.8165   20.5527 C   0  0  0  0  0  0  0  0  0  0  0  0
   24.3162   -0.4482   15.2222 C   0  0  0  0  0  0  0  0  0  0  0  0
   25.1720    2.6866   16.8910 C   0  0  0  0  0  0  0  0  0  0  0  0
   26.0032    2.6844   15.8297 N   0  0  0  0  0  0  0  0  0  0  0  0
   24.4059    1.5101   16.8360 C   0  0  0  0  0  0  0  0  0  0  0  0
   23.4600    1.2513   17.8232 C   0  0  0  0  0  0  0  0  0  0  0  0
   23.2807    2.1441   18.8425 C   0  0  0  0  0  0  0  0  0  0  0  0
   24.0351    3.3083   18.9028 C   0  0  0  0  0  0  0  0  0  0  0  0
   24.9680    3.5858   17.9473 C   0  0  0  0  0  0  0  0  0  0  0  0
   24.8193    0.8378   15.7096 N   0  0  0  0  0  0  0  0  0  0  0  0
   25.8214    1.6249   15.1226 N   0  0  0  0  0  0  0  0  0  0  0  0
   25.5432   -2.6168   13.8684 C   0  0  0  0  0  0  0  0  0  0  0  0
   26.6926   -1.7644   13.3938 C   0  0  0  0  0  0  0  0  0  0  0  0
   28.0111   -2.0610   13.6909 C   0  0  0  0  0  0  0  0  0  0  0  0
   28.9056   -1.2044   13.1934 C   0  0  0  0  0  0  0  0  0  0  0  0
   26.5152   -0.6709   12.6517 C   0  0  0  0  0  0  0  0  0  0  0  0
   28.0751    0.0598   12.2958 S   0  0  0  0  0  0  0  0  0  0  0  0
 18 24  1  0
 19 18  1  0
  1  4  1  0
  1  2  1  0
 28 27  1  0
  4  9  2  0
  5 11  1  0
  5  8  2  0
 29 28  1  0
 30 32  1  0
 30 29  2  0
 31 28  2  0
  2 17  1  0
 17 25  1  0
 20 18  2  0
 20 21  1  0
 21 22  2  0
 22 23  1  0
 24 23  2  0
 27  1  1  0
  6  7  2  0
  6  4  1  0
  7  5  1  0
 10 11  1  0
 10 14  1  0
 14 16  1  0
 14 15  1  0
 16 15  1  0
  9  8  1  0
 25 20  1  0
 26 25  1  0
 26 19  2  0
 11 13  1  0
  3  2  2  0
 12 10  2  0
 32 31  1  0
M  END
> <minimizedAffinity>
-6.50216

> <CNNscore>
0.2739627957

> <CNNaffinity>
5.8810715675

> <CNN_VS>
1.6111948490

> <CNNaffinity_variance>
0.1395993233

$$$$
Y6J


 32 36  0  0  0  0  0  0  0  0999 V2000
   25.5850   -2.0361   14.5779 N   0  0  0  0  0  0  0  0  0  0  0  0
   25.3668   -2.8362   15.6416 C   0  0  0  0  0  0  0  0  0  0  0  0
   25.1317   -2.3502   16.7274 O   0  0  0  0  0  0  0  0  0  0  0  0
   25.6382   -0.6471   14.7469 C   0  0  0  0  0  0  0  0  0  0  0  0
   25.7465    2.0998   15.0807 C   0  0  0  0  0  0  0  0  0  0  0  0
   26.8406   -0.0348   15.0780 C   0  0  0  0  0  0  0  0  0  0  0  0
   26.8940    1.3350   15.2443 C   0  0  0  0  0  0  0  0  0  0  0  0
   24.5455    1.4874   14.7454 C   0  0  0  0  0  0  0  0  0  0  0  0
   24.4923    0.1188   14.5786 C   0  0  0  0  0  0  0  0  0  0  0  0
   26.0156    4.2910   14.1887 C   0  0  0  0  0  0  0  0  0  0  0  0
   25.8014    3.4889   15.2504 N   0  0  0  0  0  0  0  0  0  0  0  0
   26.0774    3.8163   13.0738 O   0  0  0  0  0  0  0  0  0  0  0  0
   25.6847    3.8738   16.1330 H   0  0  0  0  0  0  0  0  0  0  0  0
   26.1790    5.7753   14.3863 C   0  0  0  0  0  0  0  0  0  0  0  0
   25.8908    6.3387   15.7786 C   0  0  0  0  0  0  0  0  0  0  0  0
   24.9127    6.5989   14.6313 C   0  0  0  0  0  0  0  0  0  0  0  0
   25.4149   -4.3340   15.4803 C   0  0  0  0  0  0  0  0  0  0  0  0
   27.1978   -5.7183   18.3524 C   0  0  0  0  0  0  0  0  0  0  0  0
   25.9073   -5.9268   18.6817 N   0  0  0  0  0  0  0  0  0  0  0  0
   27.2218   -5.0846   17.0986 C   0  0  0  0  0  0  0  0  0  0  0  0
   28.4390   -4.7455   16.5158 C   0  0  0  0  0  0  0  0  0  0  0  0
   29.6065   -5.0308   17.1669 C   0  0  0  0  0  0  0  0  0  0  0  0
   29.5894   -5.6563   18.4065 C   0  0  0  0  0  0  0  0  0  0  0  0
   28.4098   -5.9999   18.9987 C   0  0  0  0  0  0  0  0  0  0  0  0
   25.9079   -4.9418   16.7181 N   0  0  0  0  0  0  0  0  0  0  0  0
   25.1331   -5.4888   17.7519 N   0  0  0  0  0  0  0  0  0  0  0  0
   25.7672   -2.6216   13.2477 C   0  0  0  0  0  0  0  0  0  0  0  0
   27.0906   -3.3417   13.1933 C   0  0  0  0  0  0  0  0  0  0  0  0
   27.2019   -4.6655   12.8060 C   0  0  0  0  0  0  0  0  0  0  0  0
   28.4454   -5.1502   12.8125 C   0  0  0  0  0  0  0  0  0  0  0  0
   28.2424   -2.7492   13.5096 C   0  0  0  0  0  0  0  0  0  0  0  0
   29.5640   -3.8961   13.3316 S   0  0  0  0  0  0  0  0  0  0  0  0
 18 24  1  0
 19 18  1  0
  1  4  1  0
  1  2  1  0
 28 27  1  0
  4  9  2  0
  5 11  1  0
  5  8  2  0
 29 28  1  0
 30 32  1  0
 30 29  2  0
 31 28  2  0
  2 17  1  0
 17 25  1  0
 20 18  2  0
 20 21  1  0
 21 22  2  0
 22 23  1  0
 24 23  2  0
 27  1  1  0
  6  7  2  0
  6  4  1  0
  7  5  1  0
 10 11  1  0
 10 14  1  0
 14 16  1  0
 14 15  1  0
 16 15  1  0
  9  8  1  0
 25 20  1  0
 26 25  1  0
 26 19  2  0
 11 13  1  0
  3  2  2  0
 12 10  2  0
 32 31  1  0
M  END
> <minimizedAffinity>
-6.44743

> <CNNscore>
0.2664194703

> <CNNaffinity>
6.2371220589

> <CNN_VS>
1.6616907120

> <CNNaffinity_variance>
0.1135523245

$$$$
Y6J


 32 36  0  0  0  0  0  0  0  0999 V2000
   25.5812   -0.8201   15.8691 N   0  0  0  0  0  0  0  0  0  0  0  0
   26.8583   -1.2421   15.9703 C   0  0  0  0  0  0  0  0  0  0  0  0
   27.5350   -0.9038   16.9180 O   0  0  0  0  0  0  0  0  0  0  0  0
   25.0683    0.0871   16.8044 C   0  0  0  0  0  0  0  0  0  0  0  0
   24.0553    1.8833   18.6525 C   0  0  0  0  0  0  0  0  0  0  0  0
   25.6779    1.3235   16.9771 C   0  0  0  0  0  0  0  0  0  0  0  0
   25.1723    2.2189   17.8988 C   0  0  0  0  0  0  0  0  0  0  0  0
   23.4437    0.6486   18.4763 C   0  0  0  0  0  0  0  0  0  0  0  0
   23.9484   -0.2458   17.5550 C   0  0  0  0  0  0  0  0  0  0  0  0
   24.0010    2.7850   20.8556 C   0  0  0  0  0  0  0  0  0  0  0  0
   23.5437    2.7917   19.5878 N   0  0  0  0  0  0  0  0  0  0  0  0
   24.9146    2.0495   21.1660 O   0  0  0  0  0  0  0  0  0  0  0  0
   22.8598    3.4262   19.3224 H   0  0  0  0  0  0  0  0  0  0  0  0
   23.3776    3.6894   21.8864 C   0  0  0  0  0  0  0  0  0  0  0  0
   24.1079    4.9916   22.2179 C   0  0  0  0  0  0  0  0  0  0  0  0
   24.1033    3.8400   23.2252 C   0  0  0  0  0  0  0  0  0  0  0  0
   27.4436   -2.1343   14.9059 C   0  0  0  0  0  0  0  0  0  0  0  0
   29.2333   -4.7844   16.6716 C   0  0  0  0  0  0  0  0  0  0  0  0
   30.2341   -4.0933   16.0905 N   0  0  0  0  0  0  0  0  0  0  0  0
   28.0237   -4.1624   16.3192 C   0  0  0  0  0  0  0  0  0  0  0  0
   26.8174   -4.6774   16.7839 C   0  0  0  0  0  0  0  0  0  0  0  0
   26.8154   -5.7872   17.5817 C   0  0  0  0  0  0  0  0  0  0  0  0
   28.0073   -6.4069   17.9331 C   0  0  0  0  0  0  0  0  0  0  0  0
   29.2030   -5.9214   17.4916 C   0  0  0  0  0  0  0  0  0  0  0  0
   28.3624   -3.0924   15.5242 N   0  0  0  0  0  0  0  0  0  0  0  0
   29.7613   -3.1030   15.4186 N   0  0  0  0  0  0  0  0  0  0  0  0
   24.7332   -1.3105   14.7802 C   0  0  0  0  0  0  0  0  0  0  0  0
   24.8728   -0.4002   13.5864 C   0  0  0  0  0  0  0  0  0  0  0  0
   25.1536    0.9491   13.7085 C   0  0  0  0  0  0  0  0  0  0  0  0
   25.2445    1.6111   12.5531 C   0  0  0  0  0  0  0  0  0  0  0  0
   24.7402   -0.8363   12.3334 C   0  0  0  0  0  0  0  0  0  0  0  0
   24.9649    0.5032   11.2159 S   0  0  0  0  0  0  0  0  0  0  0  0
 18 24  1  0
 19 18  1  0
  1  4  1  0
  1  2  1  0
 28 27  1  0
  4  9  2  0
  5 11  1  0
  5  8  2  0
 29 28  1  0
 30 32  1  0
 30 29  2  0
 31 28  2  0
  2 17  1  0
 17 25  1  0
 20 18  2  0
 20 21  1  0
 21 22  2  0
 22 23  1  0
 24 23  2  0
 27  1  1  0
  6  7  2  0
  6  4  1  0
  7  5  1  0
 10 11  1  0
 10 14  1  0
 14 16  1  0
 14 15  1  0
 16 15  1  0
  9  8  1  0
 25 20  1  0
 26 25  1  0
 26 19  2  0
 11 13  1  0
  3  2  2  0
 12 10  2  0
 32 31  1  0
M  END
> <minimizedAffinity>
-7.05422

> <CNNscore>
0.2231657058

> <CNNaffinity>
5.9722657204

> <CNN_VS>
1.3328049183

> <CNNaffinity_variance>
0.2127236724

$$$$
Y6J


 32 36  0  0  0  0  0  0  0  0999 V2000
   26.7527    1.8687   15.1870 N   0  0  0  0  0  0  0  0  0  0  0  0
   27.6187    0.8384   15.2755 C   0  0  0  0  0  0  0  0  0  0  0  0
   27.7650    0.2586   16.3304 O   0  0  0  0  0  0  0  0  0  0  0  0
   26.0977    2.3321   16.3346 C   0  0  0  0  0  0  0  0  0  0  0  0
   24.8039    3.2509   18.6041 C   0  0  0  0  0  0  0  0  0  0  0  0
   26.7111    3.2754   17.1496 C   0  0  0  0  0  0  0  0  0  0  0  0
   26.0654    3.7332   18.2812 C   0  0  0  0  0  0  0  0  0  0  0  0
   24.1893    2.3109   17.7865 C   0  0  0  0  0  0  0  0  0  0  0  0
   24.8341    1.8539   16.6555 C   0  0  0  0  0  0  0  0  0  0  0  0
   24.2305    3.0184   20.9034 C   0  0  0  0  0  0  0  0  0  0  0  0
   24.1502    3.7151   19.7524 N   0  0  0  0  0  0  0  0  0  0  0  0
   24.9370    2.0341   20.9674 O   0  0  0  0  0  0  0  0  0  0  0  0
   23.6395    4.5391   19.7191 H   0  0  0  0  0  0  0  0  0  0  0  0
   23.4429    3.4609   22.1087 C   0  0  0  0  0  0  0  0  0  0  0  0
   23.5780    4.9209   22.5439 C   0  0  0  0  0  0  0  0  0  0  0  0
   24.2273    3.8123   23.3749 C   0  0  0  0  0  0  0  0  0  0  0  0
   28.4037    0.4078   14.0631 C   0  0  0  0  0  0  0  0  0  0  0  0
   28.9763   -3.1979   14.1855 C   0  0  0  0  0  0  0  0  0  0  0  0
   30.0615   -2.7083   14.8177 N   0  0  0  0  0  0  0  0  0  0  0  0
   28.1795   -2.1075   13.7979 C   0  0  0  0  0  0  0  0  0  0  0  0
   26.9872   -2.3274   13.1150 C   0  0  0  0  0  0  0  0  0  0  0  0
   26.5969   -3.6047   12.8244 C   0  0  0  0  0  0  0  0  0  0  0  0
   27.3802   -4.6865   13.2041 C   0  0  0  0  0  0  0  0  0  0  0  0
   28.5525   -4.4980   13.8752 C   0  0  0  0  0  0  0  0  0  0  0  0
   28.8379   -0.9806   14.2316 N   0  0  0  0  0  0  0  0  0  0  0  0
   30.0100   -1.4234   14.8629 N   0  0  0  0  0  0  0  0  0  0  0  0
   26.4999    2.5023   13.8909 C   0  0  0  0  0  0  0  0  0  0  0  0
   25.7499    1.5436   13.0013 C   0  0  0  0  0  0  0  0  0  0  0  0
   25.9507    1.4857   11.6335 C   0  0  0  0  0  0  0  0  0  0  0  0
   25.2063    0.5811   10.9940 C   0  0  0  0  0  0  0  0  0  0  0  0
   24.8471    0.6840   13.4745 C   0  0  0  0  0  0  0  0  0  0  0  0
   24.1826   -0.2624   12.1491 S   0  0  0  0  0  0  0  0  0  0  0  0
 18 24  1  0
 19 18  1  0
  1  4  1  0
  1  2  1  0
 28 27  1  0
  4  9  2  0
  5 11  1  0
  5  8  2  0
 29 28  1  0
 30 32  1  0
 30 29  2  0
 31 28  2  0
  2 17  1  0
 17 25  1  0
 20 18  2  0
 20 21  1  0
 21 22  2  0
 22 23  1  0
 24 23  2  0
 27  1  1  0
  6  7  2  0
  6  4  1  0
  7  5  1  0
 10 11  1  0
 10 14  1  0
 14 16  1  0
 14 15  1  0
 16 15  1  0
  9  8  1  0
 25 20  1  0
 26 25  1  0
 26 19  2  0
 11 13  1  0
  3  2  2  0
 12 10  2  0
 32 31  1  0
M  END
> <minimizedAffinity>
-6.85182

> <CNNscore>
0.2047433108

> <CNNaffinity>
5.6753191948

> <CNN_VS>
1.1619836092

> <CNNaffinity_variance>
0.3533074856

$$$$
Y6J


 32 36  0  0  0  0  0  0  0  0999 V2000
   26.2044   -1.3388   14.0692 N   0  0  0  0  0  0  0  0  0  0  0  0
   25.2328   -1.1085   14.9760 C   0  0  0  0  0  0  0  0  0  0  0  0
   25.2763   -1.6480   16.0611 O   0  0  0  0  0  0  0  0  0  0  0  0
   27.2084   -2.2758   14.3428 C   0  0  0  0  0  0  0  0  0  0  0  0
   29.1928   -4.1306   14.8816 C   0  0  0  0  0  0  0  0  0  0  0  0
   27.0605   -3.5922   13.9239 C   0  0  0  0  0  0  0  0  0  0  0  0
   28.0505   -4.5167   14.1929 C   0  0  0  0  0  0  0  0  0  0  0  0
   29.3419   -2.8132   15.2964 C   0  0  0  0  0  0  0  0  0  0  0  0
   28.3532   -1.8893   15.0272 C   0  0  0  0  0  0  0  0  0  0  0  0
   30.2938   -5.6146   16.3833 C   0  0  0  0  0  0  0  0  0  0  0  0
   30.1959   -5.0690   15.1548 N   0  0  0  0  0  0  0  0  0  0  0  0
   29.4625   -5.3564   17.2286 O   0  0  0  0  0  0  0  0  0  0  0  0
   30.8204   -5.3266   14.4588 H   0  0  0  0  0  0  0  0  0  0  0  0
   31.4347   -6.5434   16.7068 C   0  0  0  0  0  0  0  0  0  0  0  0
   31.1158   -7.7966   17.5233 C   0  0  0  0  0  0  0  0  0  0  0  0
   31.8766   -6.6368   18.1689 C   0  0  0  0  0  0  0  0  0  0  0  0
   24.0938   -0.1802   14.6405 C   0  0  0  0  0  0  0  0  0  0  0  0
   23.3884    1.7663   17.6500 C   0  0  0  0  0  0  0  0  0  0  0  0
   22.3365    0.9252   17.5931 N   0  0  0  0  0  0  0  0  0  0  0  0
   24.2170    1.4891   16.5497 C   0  0  0  0  0  0  0  0  0  0  0  0
   25.3850    2.2211   16.3589 C   0  0  0  0  0  0  0  0  0  0  0  0
   25.7204    3.2074   17.2438 C   0  0  0  0  0  0  0  0  0  0  0  0
   24.9053    3.4866   18.3327 C   0  0  0  0  0  0  0  0  0  0  0  0
   23.7559    2.7831   18.5428 C   0  0  0  0  0  0  0  0  0  0  0  0
   23.6113    0.4615   15.8652 N   0  0  0  0  0  0  0  0  0  0  0  0
   22.4375    0.1529   16.5689 N   0  0  0  0  0  0  0  0  0  0  0  0
   26.2071   -0.6094   12.7990 C   0  0  0  0  0  0  0  0  0  0  0  0
   26.6676    0.8068   13.0345 C   0  0  0  0  0  0  0  0  0  0  0  0
   27.7876    1.1093   13.7886 C   0  0  0  0  0  0  0  0  0  0  0  0
   28.0564    2.4120   13.8979 C   0  0  0  0  0  0  0  0  0  0  0  0
   26.0291    1.8617   12.5270 C   0  0  0  0  0  0  0  0  0  0  0  0
   26.8505    3.3387   13.0144 S   0  0  0  0  0  0  0  0  0  0  0  0
 18 24  1  0
 19 18  1  0
  1  4  1  0
  1  2  1  0
 28 27  1  0
  4  9  2  0
  5 11  1  0
  5  8  2  0
 29 28  1  0
 30 32  1  0
 30 29  2  0
 31 28  2  0
  2 17  1  0
 17 25  1  0
 20 18  2  0
 20 21  1  0
 21 22  2  0
 22 23  1  0
 24 23  2  0
 27  1  1  0
  6  7  2  0
  6  4  1  0
  7  5  1  0
 10 11  1  0
 10 14  1  0
 14 16  1  0
 14 15  1  0
 16 15  1  0
  9  8  1  0
 25 20  1  0
 26 25  1  0
 26 19  2  0
 11 13  1  0
  3  2  2  0
 12 10  2  0
 32 31  1  0
M  END
> <minimizedAffinity>
-7.00601

> <CNNscore>
0.1931693554

> <CNNaffinity>
6.1198768616

> <CNN_VS>
1.1821726561

> <CNNaffinity_variance>
0.1924277395

$$$$
Y6J


 32 36  0  0  0  0  0  0  0  0999 V2000
   24.9903   -1.7612   15.5146 N   0  0  0  0  0  0  0  0  0  0  0  0
   24.5028   -0.9285   16.4571 C   0  0  0  0  0  0  0  0  0  0  0  0
   24.9758   -0.9336   17.5736 O   0  0  0  0  0  0  0  0  0  0  0  0
   25.9736   -2.6995   15.8514 C   0  0  0  0  0  0  0  0  0  0  0  0
   27.9164   -4.5573   16.5165 C   0  0  0  0  0  0  0  0  0  0  0  0
   25.6309   -4.0368   16.0074 C   0  0  0  0  0  0  0  0  0  0  0  0
   26.6002   -4.9628   16.3390 C   0  0  0  0  0  0  0  0  0  0  0  0
   28.2591   -3.2206   16.3563 C   0  0  0  0  0  0  0  0  0  0  0  0
   27.2908   -2.2955   16.0243 C   0  0  0  0  0  0  0  0  0  0  0  0
   29.2591   -5.6645   18.1416 C   0  0  0  0  0  0  0  0  0  0  0  0
   28.8987   -5.4970   16.8538 N   0  0  0  0  0  0  0  0  0  0  0  0
   28.6742   -5.0621   19.0175 O   0  0  0  0  0  0  0  0  0  0  0  0
   29.3195   -6.0278   16.1596 H   0  0  0  0  0  0  0  0  0  0  0  0
   30.3876   -6.5983   18.4930 C   0  0  0  0  0  0  0  0  0  0  0  0
   31.0638   -7.3521   17.3469 C   0  0  0  0  0  0  0  0  0  0  0  0
   30.1442   -8.0986   18.3154 C   0  0  0  0  0  0  0  0  0  0  0  0
   23.3706    0.0084   16.1221 C   0  0  0  0  0  0  0  0  0  0  0  0
   24.5131    3.3600   17.0191 C   0  0  0  0  0  0  0  0  0  0  0  0
   24.4859    3.4115   15.6723 N   0  0  0  0  0  0  0  0  0  0  0  0
   24.1011    2.0737   17.4058 C   0  0  0  0  0  0  0  0  0  0  0  0
   24.0403    1.7411   18.7556 C   0  0  0  0  0  0  0  0  0  0  0  0
   24.3822    2.6688   19.6995 C   0  0  0  0  0  0  0  0  0  0  0  0
   24.7908    3.9415   19.3237 C   0  0  0  0  0  0  0  0  0  0  0  0
   24.8580    4.2928   18.0076 C   0  0  0  0  0  0  0  0  0  0  0  0
   23.8324    1.3929   16.2414 N   0  0  0  0  0  0  0  0  0  0  0  0
   24.0926    2.2851   15.1904 N   0  0  0  0  0  0  0  0  0  0  0  0
   24.4893   -1.6835   14.1404 C   0  0  0  0  0  0  0  0  0  0  0  0
   25.3910   -0.7898   13.3272 C   0  0  0  0  0  0  0  0  0  0  0  0
   26.7063   -1.1160   13.0477 C   0  0  0  0  0  0  0  0  0  0  0  0
   27.3651   -0.2155   12.3153 C   0  0  0  0  0  0  0  0  0  0  0  0
   24.9790    0.3720   12.8188 C   0  0  0  0  0  0  0  0  0  0  0  0
   26.2993    1.1323   11.9399 S   0  0  0  0  0  0  0  0  0  0  0  0
 18 24  1  0
 19 18  1  0
  1  4  1  0
  1  2  1  0
 28 27  1  0
  4  9  2  0
  5 11  1  0
  5  8  2  0
 29 28  1  0
 30 32  1  0
 30 29  2  0
 31 28  2  0
  2 17  1  0
 17 25  1  0
 20 18  2  0
 20 21  1  0
 21 22  2  0
 22 23  1  0
 24 23  2  0
 27  1  1  0
  6  7  2  0
  6  4  1  0
  7  5  1  0
 10 11  1  0
 10 14  1  0
 14 16  1  0
 14 15  1  0
 16 15  1  0
  9  8  1  0
 25 20  1  0
 26 25  1  0
 26 19  2  0
 11 13  1  0
  3  2  2  0
 12 10  2  0
 32 31  1  0
M  END
> <minimizedAffinity>
-6.84426

> <CNNscore>
0.1912156343

> <CNNaffinity>
5.9203629494

> <CNN_VS>
1.1320660114

> <CNNaffinity_variance>
0.4158745110

$$$$
