Y6J


 32 36  0  0  0  0  0  0  0  0999 V2000
   25.3788   -1.5218   15.3297 N   0  0  0  0  0  0  0  0  0  0  0  0
   25.2411   -0.4691   16.1617 C   0  0  0  0  0  0  0  0  0  0  0  0
   25.8204   -0.4587   17.2269 O   0  0  0  0  0  0  0  0  0  0  0  0
   26.1096   -2.6445   15.7376 C   0  0  0  0  0  0  0  0  0  0  0  0
   27.5523   -4.8665   16.5436 C   0  0  0  0  0  0  0  0  0  0  0  0
   25.4441   -3.7897   16.1570 C   0  0  0  0  0  0  0  0  0  0  0  0
   26.1641   -4.8975   16.5588 C   0  0  0  0  0  0  0  0  0  0  0  0
   28.2171   -3.7226   16.1201 C   0  0  0  0  0  0  0  0  0  0  0  0
   27.4977   -2.6160   15.7180 C   0  0  0  0  0  0  0  0  0  0  0  0
   28.8359   -6.0255   18.1802 C   0  0  0  0  0  0  0  0  0  0  0  0
   28.2818   -5.9901   16.9522 N   0  0  0  0  0  0  0  0  0  0  0  0
   28.6330   -5.1206   18.9625 O   0  0  0  0  0  0  0  0  0  0  0  0
   28.3877   -6.7436   16.3506 H   0  0  0  0  0  0  0  0  0  0  0  0
   29.7072   -7.1872   18.5807 C   0  0  0  0  0  0  0  0  0  0  0  0
   29.0132   -8.4341   19.1308 C   0  0  0  0  0  0  0  0  0  0  0  0
   29.8001   -7.5194   20.0716 C   0  0  0  0  0  0  0  0  0  0  0  0
   24.3677    0.6940   15.7669 C   0  0  0  0  0  0  0  0  0  0  0  0
   22.5784    1.7611   18.7675 C   0  0  0  0  0  0  0  0  0  0  0  0
   21.6155    1.1375   18.0596 N   0  0  0  0  0  0  0  0  0  0  0  0
   23.7667    1.6976   18.0205 C   0  0  0  0  0  0  0  0  0  0  0  0
   24.9313    2.2733   18.5191 C   0  0  0  0  0  0  0  0  0  0  0  0
   24.9132    2.8984   19.7345 C   0  0  0  0  0  0  0  0  0  0  0  0
   23.7419    2.9651   20.4773 C   0  0  0  0  0  0  0  0  0  0  0  0
   22.5873    2.4081   20.0114 C   0  0  0  0  0  0  0  0  0  0  0  0
   23.4566    1.0149   16.8676 N   0  0  0  0  0  0  0  0  0  0  0  0
   22.0942    0.6909   16.9519 N   0  0  0  0  0  0  0  0  0  0  0  0
   24.7626   -1.4895   14.0013 C   0  0  0  0  0  0  0  0  0  0  0  0
   25.5734   -0.6000   13.0934 C   0  0  0  0  0  0  0  0  0  0  0  0
   24.9928    0.3403   12.2607 C   0  0  0  0  0  0  0  0  0  0  0  0
   25.8531    1.0450   11.5227 C   0  0  0  0  0  0  0  0  0  0  0  0
   26.9043   -0.6568   13.0364 C   0  0  0  0  0  0  0  0  0  0  0  0
   27.4954    0.5198   11.8702 S   0  0  0  0  0  0  0  0  0  0  0  0
 18 24  1  0
 19 18  1  0
  1  4  1  0
  1  2  1  0
 28 27  1  0
  4  9  2  0
  5 11  1  0
  5  8  2  0
 29 28  1  0
 30 32  1  0
 30 29  2  0
 31 28  2  0
  2 17  1  0
 17 25  1  0
 20 18  2  0
 20 21  1  0
 21 22  2  0
 22 23  1  0
 24 23  2  0
 27  1  1  0
  6  7  2  0
  6  4  1  0
  7  5  1  0
 10 11  1  0
 10 14  1  0
 14 16  1  0
 14 15  1  0
 16 15  1  0
  9  8  1  0
 25 20  1  0
 26 25  1  0
 26 19  2  0
 11 13  1  0
  3  2  2  0
 12 10  2  0
 32 31  1  0
M  END
> <minimizedAffinity>
-6.79861

> <CNNscore>
0.7636258006

> <CNNaffinity>
6.7523155212

> <CNN_VS>
5.1562423706

> <CNNaffinity_variance>
0.1277045459

$$$$
Y6J


 32 36  0  0  0  0  0  0  0  0999 V2000
   25.9719   -0.6654   15.3689 N   0  0  0  0  0  0  0  0  0  0  0  0
   24.8584   -0.4457   16.0977 C   0  0  0  0  0  0  0  0  0  0  0  0
   24.5254   -1.2412   16.9502 O   0  0  0  0  0  0  0  0  0  0  0  0
   26.6875   -1.8585   15.5276 C   0  0  0  0  0  0  0  0  0  0  0  0
   28.1041   -4.2168   15.8438 C   0  0  0  0  0  0  0  0  0  0  0  0
   27.8704   -1.8655   16.2563 C   0  0  0  0  0  0  0  0  0  0  0  0
   28.5764   -3.0419   16.4136 C   0  0  0  0  0  0  0  0  0  0  0  0
   26.9191   -4.2099   15.1189 C   0  0  0  0  0  0  0  0  0  0  0  0
   26.2133   -3.0348   14.9622 C   0  0  0  0  0  0  0  0  0  0  0  0
   30.1254   -5.3729   16.3408 C   0  0  0  0  0  0  0  0  0  0  0  0
   28.8212   -5.4093   16.0031 N   0  0  0  0  0  0  0  0  0  0  0  0
   30.6575   -4.3111   16.5888 O   0  0  0  0  0  0  0  0  0  0  0  0
   28.3783   -6.2619   15.8705 H   0  0  0  0  0  0  0  0  0  0  0  0
   30.9220   -6.6495   16.4094 C   0  0  0  0  0  0  0  0  0  0  0  0
   32.1995   -6.6409   17.2503 C   0  0  0  0  0  0  0  0  0  0  0  0
   32.2898   -6.6664   15.7233 C   0  0  0  0  0  0  0  0  0  0  0  0
   24.0287    0.7885   15.8526 C   0  0  0  0  0  0  0  0  0  0  0  0
   22.9404    2.0008   19.1221 C   0  0  0  0  0  0  0  0  0  0  0  0
   21.8036    1.4927   18.6059 N   0  0  0  0  0  0  0  0  0  0  0  0
   23.9591    1.8208   18.1714 C   0  0  0  0  0  0  0  0  0  0  0  0
   25.2499    2.2625   18.4454 C   0  0  0  0  0  0  0  0  0  0  0  0
   25.5205    2.8700   19.6396 C   0  0  0  0  0  0  0  0  0  0  0  0
   24.5180    3.0514   20.5830 C   0  0  0  0  0  0  0  0  0  0  0  0
   23.2450    2.6268   20.3393 C   0  0  0  0  0  0  0  0  0  0  0  0
   23.3730    1.1902   17.0988 N   0  0  0  0  0  0  0  0  0  0  0  0
   22.0219    1.0122   17.4324 N   0  0  0  0  0  0  0  0  0  0  0  0
   26.4302    0.3440   14.4115 C   0  0  0  0  0  0  0  0  0  0  0  0
   25.6668    0.1940   13.1201 C   0  0  0  0  0  0  0  0  0  0  0  0
   25.8684    1.0290   12.0354 C   0  0  0  0  0  0  0  0  0  0  0  0
   25.1111    0.7591   10.9700 C   0  0  0  0  0  0  0  0  0  0  0  0
   24.7504   -0.7569   12.9357 C   0  0  0  0  0  0  0  0  0  0  0  0
   24.0733   -0.6176   11.3183 S   0  0  0  0  0  0  0  0  0  0  0  0
 18 24  1  0
 19 18  1  0
  1  4  1  0
  1  2  1  0
 28 27  1  0
  4  9  2  0
  5 11  1  0
  5  8  2  0
 29 28  1  0
 30 32  1  0
 30 29  2  0
 31 28  2  0
  2 17  1  0
 17 25  1  0
 20 18  2  0
 20 21  1  0
 21 22  2  0
 22 23  1  0
 24 23  2  0
 27  1  1  0
  6  7  2  0
  6  4  1  0
  7  5  1  0
 10 11  1  0
 10 14  1  0
 14 16  1  0
 14 15  1  0
 16 15  1  0
  9  8  1  0
 25 20  1  0
 26 25  1  0
 26 19  2  0
 11 13  1  0
  3  2  2  0
 12 10  2  0
 32 31  1  0
M  END
> <minimizedAffinity>
-6.61698

> <CNNscore>
0.7029009461

> <CNNaffinity>
6.6932597160

> <CNN_VS>
4.7046985626

> <CNNaffinity_variance>
0.1303992420

$$$$
Y6J


 32 36  0  0  0  0  0  0  0  0999 V2000
   25.5816   -2.6839   14.8663 N   0  0  0  0  0  0  0  0  0  0  0  0
   24.8825   -1.6266   15.3273 C   0  0  0  0  0  0  0  0  0  0  0  0
   24.6849   -1.5030   16.5173 O   0  0  0  0  0  0  0  0  0  0  0  0
   25.9931   -3.6892   15.7501 C   0  0  0  0  0  0  0  0  0  0  0  0
   26.8090   -5.6754   17.4987 C   0  0  0  0  0  0  0  0  0  0  0  0
   27.2773   -3.6634   16.2796 C   0  0  0  0  0  0  0  0  0  0  0  0
   27.6836   -4.6542   17.1516 C   0  0  0  0  0  0  0  0  0  0  0  0
   25.5237   -5.6982   16.9721 C   0  0  0  0  0  0  0  0  0  0  0  0
   25.1175   -4.7080   16.1014 C   0  0  0  0  0  0  0  0  0  0  0  0
   27.3787   -6.4051   19.6924 C   0  0  0  0  0  0  0  0  0  0  0  0
   27.2222   -6.6804   18.3824 N   0  0  0  0  0  0  0  0  0  0  0  0
   27.0814   -5.3095   20.1208 O   0  0  0  0  0  0  0  0  0  0  0  0
   27.3954   -7.5753   18.0510 H   0  0  0  0  0  0  0  0  0  0  0  0
   27.9230   -7.4565   20.6237 C   0  0  0  0  0  0  0  0  0  0  0  0
   29.4001   -7.3628   21.0088 C   0  0  0  0  0  0  0  0  0  0  0  0
   28.9284   -8.4569   20.0490 C   0  0  0  0  0  0  0  0  0  0  0  0
   24.3478   -0.5988   14.3633 C   0  0  0  0  0  0  0  0  0  0  0  0
   25.5573    2.6830   15.4173 C   0  0  0  0  0  0  0  0  0  0  0  0
   24.2981    2.6676   15.8984 N   0  0  0  0  0  0  0  0  0  0  0  0
   25.7790    1.4605   14.7613 C   0  0  0  0  0  0  0  0  0  0  0  0
   27.0089    1.2079   14.1614 C   0  0  0  0  0  0  0  0  0  0  0  0
   27.9962    2.1518   14.2135 C   0  0  0  0  0  0  0  0  0  0  0  0
   27.7832    3.3621   14.8597 C   0  0  0  0  0  0  0  0  0  0  0  0
   26.5871    3.6338   15.4563 C   0  0  0  0  0  0  0  0  0  0  0  0
   24.6120    0.7435   14.8859 N   0  0  0  0  0  0  0  0  0  0  0  0
   23.7231    1.5537   15.6082 N   0  0  0  0  0  0  0  0  0  0  0  0
   25.9081   -2.7798   13.4417 C   0  0  0  0  0  0  0  0  0  0  0  0
   27.2133   -3.5157   13.2743 C   0  0  0  0  0  0  0  0  0  0  0  0
   27.2763   -4.8321   12.8527 C   0  0  0  0  0  0  0  0  0  0  0  0
   28.5097   -5.3330   12.7568 C   0  0  0  0  0  0  0  0  0  0  0  0
   28.3938   -2.9451   13.5163 C   0  0  0  0  0  0  0  0  0  0  0  0
   29.6818   -4.1050   13.2170 S   0  0  0  0  0  0  0  0  0  0  0  0
 18 24  1  0
 19 18  1  0
  1  4  1  0
  1  2  1  0
 28 27  1  0
  4  9  2  0
  5 11  1  0
  5  8  2  0
 29 28  1  0
 30 32  1  0
 30 29  2  0
 31 28  2  0
  2 17  1  0
 17 25  1  0
 20 18  2  0
 20 21  1  0
 21 22  2  0
 22 23  1  0
 24 23  2  0
 27  1  1  0
  6  7  2  0
  6  4  1  0
  7  5  1  0
 10 11  1  0
 10 14  1  0
 14 16  1  0
 14 15  1  0
 16 15  1  0
  9  8  1  0
 25 20  1  0
 26 25  1  0
 26 19  2  0
 11 13  1  0
  3  2  2  0
 12 10  2  0
 32 31  1  0
M  END
> <minimizedAffinity>
-6.92655

> <CNNscore>
0.4978232980

> <CNNaffinity>
6.3832974434

> <CNN_VS>
3.1777541637

> <CNNaffinity_variance>
0.1500785202

$$$$
Y6J


 32 36  0  0  0  0  0  0  0  0999 V2000
   26.4525   -0.4012   15.1544 N   0  0  0  0  0  0  0  0  0  0  0  0
   26.0524    0.8422   14.8180 C   0  0  0  0  0  0  0  0  0  0  0  0
   26.8641    1.7397   14.7402 O   0  0  0  0  0  0  0  0  0  0  0  0
   27.7867   -0.6342   15.5102 C   0  0  0  0  0  0  0  0  0  0  0  0
   30.4260   -1.0940   16.2110 C   0  0  0  0  0  0  0  0  0  0  0  0
   28.7593   -0.7363   14.5234 C   0  0  0  0  0  0  0  0  0  0  0  0
   30.0754   -0.9655   14.8735 C   0  0  0  0  0  0  0  0  0  0  0  0
   29.4536   -0.9877   17.1974 C   0  0  0  0  0  0  0  0  0  0  0  0
   28.1388   -0.7580   16.8477 C   0  0  0  0  0  0  0  0  0  0  0  0
   32.6264   -0.2981   16.6516 C   0  0  0  0  0  0  0  0  0  0  0  0
   31.7607   -1.3275   16.5652 N   0  0  0  0  0  0  0  0  0  0  0  0
   32.2311    0.8396   16.5048 O   0  0  0  0  0  0  0  0  0  0  0  0
   32.0620   -2.2310   16.7487 H   0  0  0  0  0  0  0  0  0  0  0  0
   34.0835   -0.5600   16.9293 C   0  0  0  0  0  0  0  0  0  0  0  0
   34.4424   -1.8581   17.6539 C   0  0  0  0  0  0  0  0  0  0  0  0
   34.5428   -0.5198   18.3885 C   0  0  0  0  0  0  0  0  0  0  0  0
   24.5968    1.1154   14.5384 C   0  0  0  0  0  0  0  0  0  0  0  0
   23.1378    1.4295   17.8725 C   0  0  0  0  0  0  0  0  0  0  0  0
   22.2997    0.5643   17.2674 N   0  0  0  0  0  0  0  0  0  0  0  0
   24.1344    1.7782   16.9454 C   0  0  0  0  0  0  0  0  0  0  0  0
   25.1381    2.6708   17.3086 C   0  0  0  0  0  0  0  0  0  0  0  0
   25.1494    3.2046   18.5669 C   0  0  0  0  0  0  0  0  0  0  0  0
   24.1671    2.8645   19.4874 C   0  0  0  0  0  0  0  0  0  0  0  0
   23.1729    1.9913   19.1567 C   0  0  0  0  0  0  0  0  0  0  0  0
   23.8448    1.0831   15.7945 N   0  0  0  0  0  0  0  0  0  0  0  0
   22.6842    0.3409   16.0599 N   0  0  0  0  0  0  0  0  0  0  0  0
   25.4905   -1.5057   15.1485 C   0  0  0  0  0  0  0  0  0  0  0  0
   26.1335   -2.7282   14.5444 C   0  0  0  0  0  0  0  0  0  0  0  0
   26.5156   -3.8200   15.3038 C   0  0  0  0  0  0  0  0  0  0  0  0
   27.0696   -4.8187   14.6131 C   0  0  0  0  0  0  0  0  0  0  0  0
   26.3717   -2.8407   13.2373 C   0  0  0  0  0  0  0  0  0  0  0  0
   27.1298   -4.3932   12.9075 S   0  0  0  0  0  0  0  0  0  0  0  0
 18 24  1  0
 19 18  1  0
  1  4  1  0
  1  2  1  0
 28 27  1  0
  4  9  2  0
  5 11  1  0
  5  8  2  0
 29 28  1  0
 30 32  1  0
 30 29  2  0
 31 28  2  0
  2 17  1  0
 17 25  1  0
 20 18  2  0
 20 21  1  0
 21 22  2  0
 22 23  1  0
 24 23  2  0
 27  1  1  0
  6  7  2  0
  6  4  1  0
  7  5  1  0
 10 11  1  0
 10 14  1  0
 14 16  1  0
 14 15  1  0
 16 15  1  0
  9  8  1  0
 25 20  1  0
 26 25  1  0
 26 19  2  0
 11 13  1  0
  3  2  2  0
 12 10  2  0
 32 31  1  0
M  END
> <minimizedAffinity>
-6.02065

> <CNNscore>
0.3146222532

> <CNNaffinity>
6.2067027092

> <CNN_VS>
1.9527667761

> <CNNaffinity_variance>
0.3320934474

$$$$
Y6J


 32 36  0  0  0  0  0  0  0  0999 V2000
   24.4785   -0.1682   15.5781 N   0  0  0  0  0  0  0  0  0  0  0  0
   24.8834   -1.4458   15.7299 C   0  0  0  0  0  0  0  0  0  0  0  0
   24.8659   -1.9607   16.8276 O   0  0  0  0  0  0  0  0  0  0  0  0
   24.1329    0.5940   16.7008 C   0  0  0  0  0  0  0  0  0  0  0  0
   23.4519    2.1028   18.9207 C   0  0  0  0  0  0  0  0  0  0  0  0
   25.1007    1.3509   17.3492 C   0  0  0  0  0  0  0  0  0  0  0  0
   24.7605    2.1032   18.4562 C   0  0  0  0  0  0  0  0  0  0  0  0
   22.4838    1.3490   18.2694 C   0  0  0  0  0  0  0  0  0  0  0  0
   22.8235    0.5979   17.1630 C   0  0  0  0  0  0  0  0  0  0  0  0
   23.8884    2.8396   21.1425 C   0  0  0  0  0  0  0  0  0  0  0  0
   23.1079    2.8654   20.0440 N   0  0  0  0  0  0  0  0  0  0  0  0
   24.9328    2.2222   21.1290 O   0  0  0  0  0  0  0  0  0  0  0  0
   22.3072    3.4127   20.0309 H   0  0  0  0  0  0  0  0  0  0  0  0
   23.4640    3.5761   22.3860 C   0  0  0  0  0  0  0  0  0  0  0  0
   23.9276    5.0252   22.5419 C   0  0  0  0  0  0  0  0  0  0  0  0
   24.5506    3.9262   23.4051 C   0  0  0  0  0  0  0  0  0  0  0  0
   25.3567   -2.2332   14.5351 C   0  0  0  0  0  0  0  0  0  0  0  0
   28.7869   -3.4890   14.5244 C   0  0  0  0  0  0  0  0  0  0  0  0
   28.8393   -2.5046   15.4439 N   0  0  0  0  0  0  0  0  0  0  0  0
   27.4719   -3.5450   14.0328 C   0  0  0  0  0  0  0  0  0  0  0  0
   27.1348   -4.4789   13.0580 C   0  0  0  0  0  0  0  0  0  0  0  0
   28.0858   -5.3381   12.5830 C   0  0  0  0  0  0  0  0  0  0  0  0
   29.3873   -5.2874   13.0643 C   0  0  0  0  0  0  0  0  0  0  0  0
   29.7432   -4.3821   14.0203 C   0  0  0  0  0  0  0  0  0  0  0  0
   26.7726   -2.5677   14.7018 N   0  0  0  0  0  0  0  0  0  0  0  0
   27.6846   -1.9514   15.5716 N   0  0  0  0  0  0  0  0  0  0  0  0
   24.4023    0.4206   14.2391 C   0  0  0  0  0  0  0  0  0  0  0  0
   25.4501    1.4961   14.1033 C   0  0  0  0  0  0  0  0  0  0  0  0
   25.1370    2.8439   14.1028 C   0  0  0  0  0  0  0  0  0  0  0  0
   26.1824    3.6636   13.9740 C   0  0  0  0  0  0  0  0  0  0  0  0
   26.7487    1.2199   13.9801 C   0  0  0  0  0  0  0  0  0  0  0  0
   27.6598    2.7182   13.8426 S   0  0  0  0  0  0  0  0  0  0  0  0
 18 24  1  0
 19 18  1  0
  1  4  1  0
  1  2  1  0
 28 27  1  0
  4  9  2  0
  5 11  1  0
  5  8  2  0
 29 28  1  0
 30 32  1  0
 30 29  2  0
 31 28  2  0
  2 17  1  0
 17 25  1  0
 20 18  2  0
 20 21  1  0
 21 22  2  0
 22 23  1  0
 24 23  2  0
 27  1  1  0
  6  7  2  0
  6  4  1  0
  7  5  1  0
 10 11  1  0
 10 14  1  0
 14 16  1  0
 14 15  1  0
 16 15  1  0
  9  8  1  0
 25 20  1  0
 26 25  1  0
 26 19  2  0
 11 13  1  0
  3  2  2  0
 12 10  2  0
 32 31  1  0
M  END
> <minimizedAffinity>
-7.33817

> <CNNscore>
0.3071675897

> <CNNaffinity>
6.0382628441

> <CNN_VS>
1.8547586203

> <CNNaffinity_variance>
0.2687035799

$$$$
Y6J


 32 36  0  0  0  0  0  0  0  0999 V2000
   26.0389   -2.8190   14.7844 N   0  0  0  0  0  0  0  0  0  0  0  0
   25.2529   -1.8150   15.2243 C   0  0  0  0  0  0  0  0  0  0  0  0
   24.9613   -1.7439   16.3992 O   0  0  0  0  0  0  0  0  0  0  0  0
   26.4361   -3.8332   15.6644 C   0  0  0  0  0  0  0  0  0  0  0  0
   27.2194   -5.8405   17.4038 C   0  0  0  0  0  0  0  0  0  0  0  0
   25.5514   -4.8534   15.9908 C   0  0  0  0  0  0  0  0  0  0  0  0
   25.9426   -5.8542   16.8582 C   0  0  0  0  0  0  0  0  0  0  0  0
   28.1051   -4.8224   17.0737 C   0  0  0  0  0  0  0  0  0  0  0  0
   27.7145   -3.8228   16.2066 C   0  0  0  0  0  0  0  0  0  0  0  0
   27.5554   -6.6555   19.6157 C   0  0  0  0  0  0  0  0  0  0  0  0
   27.6151   -6.8554   18.2841 N   0  0  0  0  0  0  0  0  0  0  0  0
   27.0805   -5.6283   20.0532 O   0  0  0  0  0  0  0  0  0  0  0  0
   27.9319   -7.7030   17.9349 H   0  0  0  0  0  0  0  0  0  0  0  0
   28.0787   -7.7063   20.5597 C   0  0  0  0  0  0  0  0  0  0  0  0
   27.0521   -8.5448   21.3226 C   0  0  0  0  0  0  0  0  0  0  0  0
   27.8663   -7.4784   22.0580 C   0  0  0  0  0  0  0  0  0  0  0  0
   24.7377   -0.7817   14.2556 C   0  0  0  0  0  0  0  0  0  0  0  0
   24.4277    2.5149   15.7985 C   0  0  0  0  0  0  0  0  0  0  0  0
   23.3605    1.8583   16.2956 N   0  0  0  0  0  0  0  0  0  0  0  0
   25.1161    1.6310   14.9506 C   0  0  0  0  0  0  0  0  0  0  0  0
   26.2673    2.0547   14.2937 C   0  0  0  0  0  0  0  0  0  0  0  0
   26.7231    3.3303   14.4770 C   0  0  0  0  0  0  0  0  0  0  0  0
   26.0469    4.2088   15.3132 C   0  0  0  0  0  0  0  0  0  0  0  0
   24.9168    3.8178   15.9692 C   0  0  0  0  0  0  0  0  0  0  0  0
   24.4146    0.4484   14.9816 N   0  0  0  0  0  0  0  0  0  0  0  0
   23.3258    0.6548   15.8419 N   0  0  0  0  0  0  0  0  0  0  0  0
   26.4748   -2.8476   13.3863 C   0  0  0  0  0  0  0  0  0  0  0  0
   27.6744   -1.9504   13.2161 C   0  0  0  0  0  0  0  0  0  0  0  0
   27.5951   -0.7091   12.6097 C   0  0  0  0  0  0  0  0  0  0  0  0
   28.7495   -0.0429   12.5400 C   0  0  0  0  0  0  0  0  0  0  0  0
   28.8906   -2.2913   13.6434 C   0  0  0  0  0  0  0  0  0  0  0  0
   30.0295   -1.0043   13.2687 S   0  0  0  0  0  0  0  0  0  0  0  0
 18 24  1  0
 19 18  1  0
  1  4  1  0
  1  2  1  0
 28 27  1  0
  4  9  2  0
  5 11  1  0
  5  8  2  0
 29 28  1  0
 30 32  1  0
 30 29  2  0
 31 28  2  0
  2 17  1  0
 17 25  1  0
 20 18  2  0
 20 21  1  0
 21 22  2  0
 22 23  1  0
 24 23  2  0
 27  1  1  0
  6  7  2  0
  6  4  1  0
  7  5  1  0
 10 11  1  0
 10 14  1  0
 14 16  1  0
 14 15  1  0
 16 15  1  0
  9  8  1  0
 25 20  1  0
 26 25  1  0
 26 19  2  0
 11 13  1  0
  3  2  2  0
 12 10  2  0
 32 31  1  0
M  END
> <minimizedAffinity>
-7.41747

> <CNNscore>
0.1994195282

> <CNNaffinity>
6.0458812714

> <CNN_VS>
1.2056667805

> <CNNaffinity_variance>
0.1074765697

$$$$
Y6J


 32 36  0  0  0  0  0  0  0  0999 V2000
   25.4038   -0.0203   15.7995 N   0  0  0  0  0  0  0  0  0  0  0  0
   26.6053   -0.6284   15.8754 C   0  0  0  0  0  0  0  0  0  0  0  0
   27.2559   -0.5595   16.8963 O   0  0  0  0  0  0  0  0  0  0  0  0
   24.9527    0.7722   16.8622 C   0  0  0  0  0  0  0  0  0  0  0  0
   24.0620    2.3417   18.9626 C   0  0  0  0  0  0  0  0  0  0  0  0
   25.5865    1.9751   17.1474 C   0  0  0  0  0  0  0  0  0  0  0  0
   25.1419    2.7574   18.1949 C   0  0  0  0  0  0  0  0  0  0  0  0
   23.4260    1.1409   18.6742 C   0  0  0  0  0  0  0  0  0  0  0  0
   23.8698    0.3595   17.6272 C   0  0  0  0  0  0  0  0  0  0  0  0
   24.1139    2.9538   21.2630 C   0  0  0  0  0  0  0  0  0  0  0  0
   23.6123    3.1353   20.0254 N   0  0  0  0  0  0  0  0  0  0  0  0
   25.0149    2.1609   21.4411 O   0  0  0  0  0  0  0  0  0  0  0  0
   22.9394    3.8164   19.8701 H   0  0  0  0  0  0  0  0  0  0  0  0
   23.5559    3.7341   22.4244 C   0  0  0  0  0  0  0  0  0  0  0  0
   23.9044    5.2208   22.5093 C   0  0  0  0  0  0  0  0  0  0  0  0
   24.5440    4.2289   23.4829 C   0  0  0  0  0  0  0  0  0  0  0  0
   27.1385   -1.3938   14.6916 C   0  0  0  0  0  0  0  0  0  0  0  0
   27.6999   -4.7831   15.9330 C   0  0  0  0  0  0  0  0  0  0  0  0
   28.9347   -4.4058   15.5457 N   0  0  0  0  0  0  0  0  0  0  0  0
   26.8254   -3.7146   15.6730 C   0  0  0  0  0  0  0  0  0  0  0  0
   25.4726   -3.8357   15.9755 C   0  0  0  0  0  0  0  0  0  0  0  0
   25.0008   -4.9951   16.5246 C   0  0  0  0  0  0  0  0  0  0  0  0
   25.8598   -6.0550   16.7834 C   0  0  0  0  0  0  0  0  0  0  0  0
   27.1900   -5.9612   16.4970 C   0  0  0  0  0  0  0  0  0  0  0  0
   27.5970   -2.7134   15.1308 N   0  0  0  0  0  0  0  0  0  0  0  0
   28.9089   -3.2076   15.0772 N   0  0  0  0  0  0  0  0  0  0  0  0
   24.5732   -0.1886   14.6048 C   0  0  0  0  0  0  0  0  0  0  0  0
   25.0475    0.7529   13.5270 C   0  0  0  0  0  0  0  0  0  0  0  0
   25.3817    0.3206   12.2558 C   0  0  0  0  0  0  0  0  0  0  0  0
   25.7823    1.2829   11.4222 C   0  0  0  0  0  0  0  0  0  0  0  0
   25.1713    2.0656   13.7257 C   0  0  0  0  0  0  0  0  0  0  0  0
   25.7497    2.8331   12.2526 S   0  0  0  0  0  0  0  0  0  0  0  0
 18 24  1  0
 19 18  1  0
  1  4  1  0
  1  2  1  0
 28 27  1  0
  4  9  2  0
  5 11  1  0
  5  8  2  0
 29 28  1  0
 30 32  1  0
 30 29  2  0
 31 28  2  0
  2 17  1  0
 17 25  1  0
 20 18  2  0
 20 21  1  0
 21 22  2  0
 22 23  1  0
 24 23  2  0
 27  1  1  0
  6  7  2  0
  6  4  1  0
  7  5  1  0
 10 11  1  0
 10 14  1  0
 14 16  1  0
 14 15  1  0
 16 15  1  0
  9  8  1  0
 25 20  1  0
 26 25  1  0
 26 19  2  0
 11 13  1  0
  3  2  2  0
 12 10  2  0
 32 31  1  0
M  END
> <minimizedAffinity>
-7.17184

> <CNNscore>
0.1981462538

> <CNNaffinity>
5.8426303864

> <CNN_VS>
1.1576952934

> <CNNaffinity_variance>
0.3683844507

$$$$
Y6J


 32 36  0  0  0  0  0  0  0  0999 V2000
   25.9264   -1.1814   14.0280 N   0  0  0  0  0  0  0  0  0  0  0  0
   24.9995   -1.0459   14.9984 C   0  0  0  0  0  0  0  0  0  0  0  0
   25.1322   -1.6355   16.0497 O   0  0  0  0  0  0  0  0  0  0  0  0
   26.9885   -2.0783   14.1956 C   0  0  0  0  0  0  0  0  0  0  0  0
   29.0884   -3.8533   14.5245 C   0  0  0  0  0  0  0  0  0  0  0  0
   27.0424   -3.2388   13.4338 C   0  0  0  0  0  0  0  0  0  0  0  0
   28.0899   -4.1236   13.5982 C   0  0  0  0  0  0  0  0  0  0  0  0
   29.0362   -2.6906   15.2829 C   0  0  0  0  0  0  0  0  0  0  0  0
   27.9900   -1.8063   15.1183 C   0  0  0  0  0  0  0  0  0  0  0  0
   30.1228   -5.6500   15.6956 C   0  0  0  0  0  0  0  0  0  0  0  0
   30.1499   -4.7516   14.6913 N   0  0  0  0  0  0  0  0  0  0  0  0
   29.1418   -5.7368   16.4042 O   0  0  0  0  0  0  0  0  0  0  0  0
   30.9050   -4.7272   14.0830 H   0  0  0  0  0  0  0  0  0  0  0  0
   31.3100   -6.5447   15.9387 C   0  0  0  0  0  0  0  0  0  0  0  0
   31.2649   -7.4617   17.1619 C   0  0  0  0  0  0  0  0  0  0  0  0
   32.1864   -6.2404   17.1557 C   0  0  0  0  0  0  0  0  0  0  0  0
   23.7995   -0.1615   14.7761 C   0  0  0  0  0  0  0  0  0  0  0  0
   23.4342    1.7513   17.8666 C   0  0  0  0  0  0  0  0  0  0  0  0
   22.2789    1.0588   17.8136 N   0  0  0  0  0  0  0  0  0  0  0  0
   24.1909    1.4071   16.7340 C   0  0  0  0  0  0  0  0  0  0  0  0
   25.4405    1.9852   16.5325 C   0  0  0  0  0  0  0  0  0  0  0  0
   25.9259    2.8862   17.4386 C   0  0  0  0  0  0  0  0  0  0  0  0
   25.1826    3.2310   18.5596 C   0  0  0  0  0  0  0  0  0  0  0  0
   23.9556    2.6780   18.7807 C   0  0  0  0  0  0  0  0  0  0  0  0
   23.4372    0.4937   16.0347 N   0  0  0  0  0  0  0  0  0  0  0  0
   22.2508    0.3173   16.7624 N   0  0  0  0  0  0  0  0  0  0  0  0
   25.8197   -0.3909   12.7995 C   0  0  0  0  0  0  0  0  0  0  0  0
   26.3442    1.0001   13.0505 C   0  0  0  0  0  0  0  0  0  0  0  0
   27.5716    1.2366   13.6440 C   0  0  0  0  0  0  0  0  0  0  0  0
   27.8850    2.5254   13.7926 C   0  0  0  0  0  0  0  0  0  0  0  0
   25.6624    2.0949   12.7123 C   0  0  0  0  0  0  0  0  0  0  0  0
   26.5828    3.5250   13.1611 S   0  0  0  0  0  0  0  0  0  0  0  0
 18 24  1  0
 19 18  1  0
  1  4  1  0
  1  2  1  0
 28 27  1  0
  4  9  2  0
  5 11  1  0
  5  8  2  0
 29 28  1  0
 30 32  1  0
 30 29  2  0
 31 28  2  0
  2 17  1  0
 17 25  1  0
 20 18  2  0
 20 21  1  0
 21 22  2  0
 22 23  1  0
 24 23  2  0
 27  1  1  0
  6  7  2  0
  6  4  1  0
  7  5  1  0
 10 11  1  0
 10 14  1  0
 14 16  1  0
 14 15  1  0
 16 15  1  0
  9  8  1  0
 25 20  1  0
 26 25  1  0
 26 19  2  0
 11 13  1  0
  3  2  2  0
 12 10  2  0
 32 31  1  0
M  END
> <minimizedAffinity>
-7.03792

> <CNNscore>
0.1794497222

> <CNNaffinity>
6.0994434357

> <CNN_VS>
1.0945434570

> <CNNaffinity_variance>
0.2524497211

$$$$
Y6J


 32 36  0  0  0  0  0  0  0  0999 V2000
   25.1108   -1.9645   15.1962 N   0  0  0  0  0  0  0  0  0  0  0  0
   24.7028   -0.9726   16.0142 C   0  0  0  0  0  0  0  0  0  0  0  0
   24.9132   -1.0450   17.2062 O   0  0  0  0  0  0  0  0  0  0  0  0
   25.6877   -3.1216   15.7339 C   0  0  0  0  0  0  0  0  0  0  0  0
   26.8310   -5.4085   16.7976 C   0  0  0  0  0  0  0  0  0  0  0  0
   27.0700   -3.2567   15.7651 C   0  0  0  0  0  0  0  0  0  0  0  0
   27.6396   -4.3974   16.2957 C   0  0  0  0  0  0  0  0  0  0  0  0
   25.4489   -5.2709   16.7700 C   0  0  0  0  0  0  0  0  0  0  0  0
   24.8798   -4.1311   16.2405 C   0  0  0  0  0  0  0  0  0  0  0  0
   27.8503   -6.5712   18.6083 C   0  0  0  0  0  0  0  0  0  0  0  0
   27.4094   -6.5654   17.3347 N   0  0  0  0  0  0  0  0  0  0  0  0
   27.6705   -5.6020   19.3158 O   0  0  0  0  0  0  0  0  0  0  0  0
   27.4923   -7.3632   16.7894 H   0  0  0  0  0  0  0  0  0  0  0  0
   28.5663   -7.7795   19.1526 C   0  0  0  0  0  0  0  0  0  0  0  0
   29.6156   -7.5483   20.2410 C   0  0  0  0  0  0  0  0  0  0  0  0
   30.0538   -7.9263   18.8247 C   0  0  0  0  0  0  0  0  0  0  0  0
   23.9861    0.2255   15.4463 C   0  0  0  0  0  0  0  0  0  0  0  0
   24.6427    3.3092   17.2911 C   0  0  0  0  0  0  0  0  0  0  0  0
   23.9193    2.5901   18.1725 N   0  0  0  0  0  0  0  0  0  0  0  0
   24.7829    2.5390   16.1244 C   0  0  0  0  0  0  0  0  0  0  0  0
   25.4894    3.0469   15.0385 C   0  0  0  0  0  0  0  0  0  0  0  0
   26.0440    4.2940   15.1124 C   0  0  0  0  0  0  0  0  0  0  0  0
   25.9084    5.0603   16.2624 C   0  0  0  0  0  0  0  0  0  0  0  0
   25.2217    4.5853   17.3408 C   0  0  0  0  0  0  0  0  0  0  0  0
   24.1234    1.3566   16.3662 N   0  0  0  0  0  0  0  0  0  0  0  0
   23.6040    1.4500   17.6661 N   0  0  0  0  0  0  0  0  0  0  0  0
   24.9486   -1.8303   13.7467 C   0  0  0  0  0  0  0  0  0  0  0  0
   26.0160   -0.9136   13.2049 C   0  0  0  0  0  0  0  0  0  0  0  0
   25.7192    0.2692   12.5511 C   0  0  0  0  0  0  0  0  0  0  0  0
   26.7808    0.9628   12.1348 C   0  0  0  0  0  0  0  0  0  0  0  0
   27.3171   -1.1794   13.3246 C   0  0  0  0  0  0  0  0  0  0  0  0
   28.2532    0.1064   12.5734 S   0  0  0  0  0  0  0  0  0  0  0  0
 18 24  1  0
 19 18  1  0
  1  4  1  0
  1  2  1  0
 28 27  1  0
  4  9  2  0
  5 11  1  0
  5  8  2  0
 29 28  1  0
 30 32  1  0
 30 29  2  0
 31 28  2  0
  2 17  1  0
 17 25  1  0
 20 18  2  0
 20 21  1  0
 21 22  2  0
 22 23  1  0
 24 23  2  0
 27  1  1  0
  6  7  2  0
  6  4  1  0
  7  5  1  0
 10 11  1  0
 10 14  1  0
 14 16  1  0
 14 15  1  0
 16 15  1  0
  9  8  1  0
 25 20  1  0
 26 25  1  0
 26 19  2  0
 11 13  1  0
  3  2  2  0
 12 10  2  0
 32 31  1  0
M  END
> <minimizedAffinity>
-6.52737

> <CNNscore>
0.1557843238

> <CNNaffinity>
5.8661437035

> <CNN_VS>
0.9138532281

> <CNNaffinity_variance>
0.2131469697

$$$$
