"US20240293380
     RDKit          3D

 51 55  0  0  0  0  0  0  0  0999 V2000
   -3.2156    4.6818   -1.1688 Cl  0  0  0  0  0  0  0  0  0  0  0  0
   -1.5875    4.1751   -0.9353 C   0  0  0  0  0  0  0  0  0  0  0  0
   -0.6256    4.4738   -1.8971 C   0  0  0  0  0  0  0  0  0  0  0  0
    0.6918    4.0588   -1.7076 C   0  0  0  0  0  0  0  0  0  0  0  0
    1.0425    3.3490   -0.5573 C   0  0  0  0  0  0  0  0  0  0  0  0
    0.0810    3.0487    0.4194 C   0  0  0  0  0  0  0  0  0  0  0  0
    0.4570    2.2544    1.6528 C   0  0  0  0  0  0  0  0  0  0  0  0
    0.4860    0.8036    1.4095 N   0  0  0  0  0  0  0  0  0  0  0  0
    1.7190    0.2215    1.1071 C   0  0  0  0  0  0  0  0  0  0  0  0
    2.7443    0.9012    0.9707 O   0  0  0  0  0  0  0  0  0  0  0  0
    1.8359   -1.2987    1.0895 C   0  0  0  0  0  0  0  0  0  0  0  0
    2.3079   -1.7638   -0.2401 C   0  0  0  0  0  0  0  0  0  0  0  0
    1.5560   -2.3213   -1.1717 N   0  0  0  0  0  0  0  0  0  0  0  0
    2.3508   -2.6284   -2.2486 N   0  0  0  0  0  0  0  0  0  0  0  0
    3.5807   -2.2716   -1.9543 C   0  0  0  0  0  0  0  0  0  0  0  0
    4.8052   -2.3602   -2.6714 C   0  0  0  0  0  0  0  0  0  0  0  0
    5.9432   -1.9192   -2.1002 C   0  0  0  0  0  0  0  0  0  0  0  0
    5.9490   -1.3481   -0.7616 C   0  0  0  0  0  0  0  0  0  0  0  0
    4.7912   -1.2605   -0.0839 C   0  0  0  0  0  0  0  0  0  0  0  0
    3.6157   -1.7172   -0.6811 N   0  0  0  0  0  0  0  0  0  0  0  0
   -0.7735    0.1607    1.2334 C   0  0  0  0  0  0  0  0  0  0  0  0
   -1.0577   -0.5601    0.0707 C   0  0  0  0  0  0  0  0  0  0  0  0
   -2.3068   -1.1664   -0.1077 C   0  0  0  0  0  0  0  0  0  0  0  0
   -3.3036   -1.0552    0.8684 C   0  0  0  0  0  0  0  0  0  0  0  0
   -3.0255   -0.3119    2.0219 C   0  0  0  0  0  0  0  0  0  0  0  0
   -1.7757    0.2949    2.1999 C   0  0  0  0  0  0  0  0  0  0  0  0
   -4.6040   -1.6806    0.6953 C   0  0  0  0  0  0  0  0  0  0  0  0
   -5.8710   -1.3515    1.2337 C   0  0  0  0  0  0  0  0  0  0  0  0
   -6.8346   -2.1920    0.8471 N   0  0  0  0  0  0  0  0  0  0  0  0
   -6.1903   -3.0620    0.0539 N   0  0  0  0  0  0  0  0  0  0  0  0
   -4.8552   -2.8037   -0.0653 C   0  0  0  0  0  0  0  0  0  0  0  0
   -1.2431    3.4672    0.2163 C   0  0  0  0  0  0  0  0  0  0  0  0
   -0.8952    5.0227   -2.7951 H   0  0  0  0  0  0  0  0  0  0  0  0
    1.4463    4.2820   -2.4579 H   0  0  0  0  0  0  0  0  0  0  0  0
    2.0743    3.0241   -0.4293 H   0  0  0  0  0  0  0  0  0  0  0  0
   -0.2297    2.4831    2.4759 H   0  0  0  0  0  0  0  0  0  0  0  0
    1.4385    2.5942    2.0070 H   0  0  0  0  0  0  0  0  0  0  0  0
    2.5520   -1.5787    1.8719 H   0  0  0  0  0  0  0  0  0  0  0  0
    0.9056   -1.7997    1.3645 H   0  0  0  0  0  0  0  0  0  0  0  0
    4.7946   -2.7853   -3.6684 H   0  0  0  0  0  0  0  0  0  0  0  0
    6.8887   -1.9775   -2.6313 H   0  0  0  0  0  0  0  0  0  0  0  0
    6.8867   -0.9980   -0.3428 H   0  0  0  0  0  0  0  0  0  0  0  0
    4.7275   -0.8364    0.9098 H   0  0  0  0  0  0  0  0  0  0  0  0
   -0.3372   -0.6256   -0.7409 H   0  0  0  0  0  0  0  0  0  0  0  0
   -2.4881   -1.7057   -1.0348 H   0  0  0  0  0  0  0  0  0  0  0  0
   -3.7700   -0.2069    2.8078 H   0  0  0  0  0  0  0  0  0  0  0  0
   -1.5941    0.8398    3.1223 H   0  0  0  0  0  0  0  0  0  0  0  0
   -6.1328   -0.5310    1.8891 H   0  0  0  0  0  0  0  0  0  0  0  0
   -6.7244   -3.8128   -0.3713 H   0  0  0  0  0  0  0  0  0  0  0  0
   -4.2197   -3.4400   -0.6644 H   0  0  0  0  0  0  0  0  0  0  0  0
   -2.0103    3.2338    0.9504 H   0  0  0  0  0  0  0  0  0  0  0  0
  1  2  1  0
  2  3  2  0
  3  4  1  0
  4  5  2  0
  5  6  1  0
  6  7  1  0
  7  8  1  0
  8  9  1  0
  9 10  2  0
  9 11  1  0
 11 12  1  0
 12 13  2  0
 13 14  1  0
 14 15  2  0
 15 16  1  0
 16 17  2  0
 17 18  1  0
 18 19  2  0
 19 20  1  0
  8 21  1  0
 21 22  2  0
 22 23  1  0
 23 24  2  0
 24 25  1  0
 25 26  2  0
 24 27  1  0
 27 28  1  0
 28 29  2  0
 29 30  1  0
 30 31  1  0
  6 32  2  0
 32  2  1  0
 20 12  1  0
 26 21  1  0
 31 27  2  0
 20 15  1  0
  3 33  1  0
  4 34  1  0
  5 35  1  0
  7 36  1  0
  7 37  1  0
 11 38  1  0
 11 39  1  0
 16 40  1  0
 17 41  1  0
 18 42  1  0
 19 43  1  0
 22 44  1  0
 23 45  1  0
 25 46  1  0
 26 47  1  0
 28 48  1  0
 30 49  1  0
 31 50  1  0
 32 51  1  0
M  END
>  <IC50 (nM)>  (1) 
Compound 1"

>  <cluster>  (1) 
365.0

>  <Column_4>  (1) 
1

>  <ScrubInfo>  (1) 
{"isomerGroup": 0, "isomerId": 0, "confId": 0, "nr_conformers:": 1, "nr_isomers:": 1}

$$$$
"US20240293380
     RDKit          3D

 50 53  0  0  0  0  0  0  0  0999 V2000
   -5.6512   -0.4849   -1.0171 C   0  0  0  0  0  0  0  0  0  0  0  0
   -6.1042    0.8439   -0.5729 N   0  0  0  0  0  0  0  0  0  0  0  0
   -5.8663    0.4564    0.8272 C   0  0  0  0  0  0  0  0  0  0  0  0
   -4.8989   -0.6434    0.3232 C   0  0  0  0  0  0  0  0  0  0  0  0
   -3.3371   -0.3387    0.4324 C   0  0  0  0  0  0  0  0  0  0  0  0
   -2.6216   -0.6866    1.5934 C   0  0  0  0  0  0  0  0  0  0  0  0
   -2.5819    0.2820   -0.5725 C   0  0  0  0  0  0  0  0  0  0  0  0
   -1.2503   -0.4159    1.7502 C   0  0  0  0  0  0  0  0  0  0  0  0
   -1.2121    0.5580   -0.4186 C   0  0  0  0  0  0  0  0  0  0  0  0
   -0.5151    0.2367    0.7533 C   0  0  0  0  0  0  0  0  0  0  0  0
    0.9033    0.5092    0.8832 N   0  0  0  0  0  0  0  0  0  0  0  0
    1.6623   -0.1700    1.9486 C   0  0  0  0  0  0  0  0  0  0  0  0
    1.5310    1.4788    0.0722 C   0  0  0  0  0  0  0  0  0  0  0  0
    1.9674   -1.6265    1.6918 C   0  0  0  0  0  0  0  0  0  0  0  0
    0.9111    2.3762   -0.5033 O   0  0  0  0  0  0  0  0  0  0  0  0
    3.0554    1.4072   -0.0474 C   0  0  0  0  0  0  0  0  0  0  0  0
    2.5264   -2.3930    2.7193 C   0  0  0  0  0  0  0  0  0  0  0  0
    1.7562   -2.2691    0.4652 C   0  0  0  0  0  0  0  0  0  0  0  0
    3.5873    1.9189   -1.3654 C   0  0  0  0  0  0  0  0  0  0  0  0
    2.8580   -3.7033    2.6142 N   0  0  0  0  0  0  0  0  0  0  0  0
    2.0880   -3.6119    0.3310 C   0  0  0  0  0  0  0  0  0  0  0  0
    3.6221    3.2850   -1.6488 C   0  0  0  0  0  0  0  0  0  0  0  0
    4.0644    1.0453   -2.3487 C   0  0  0  0  0  0  0  0  0  0  0  0
    2.6306   -4.2860    1.4133 C   0  0  0  0  0  0  0  0  0  0  0  0
    1.8737   -4.2403   -0.8325 F   0  0  0  0  0  0  0  0  0  0  0  0
    4.1061    3.8124   -2.7980 N   0  0  0  0  0  0  0  0  0  0  0  0
    4.5597    1.5654   -3.5368 C   0  0  0  0  0  0  0  0  0  0  0  0
    4.5678    2.9356   -3.7198 C   0  0  0  0  0  0  0  0  0  0  0  0
    5.0229    0.7448   -4.4867 F   0  0  0  0  0  0  0  0  0  0  0  0
   -6.4883   -1.1806   -1.1535 H   0  0  0  0  0  0  0  0  0  0  0  0
   -5.0560   -0.4611   -1.9331 H   0  0  0  0  0  0  0  0  0  0  0  0
   -7.0831    1.0632   -0.7976 H   0  0  0  0  0  0  0  0  0  0  0  0
   -5.4955    1.6142   -0.8870 H   0  0  0  0  0  0  0  0  0  0  0  0
   -5.4282    1.2595    1.4265 H   0  0  0  0  0  0  0  0  0  0  0  0
   -6.7738    0.0844    1.3152 H   0  0  0  0  0  0  0  0  0  0  0  0
   -5.1182   -1.6207    0.7785 H   0  0  0  0  0  0  0  0  0  0  0  0
   -3.1396   -1.1796    2.4180 H   0  0  0  0  0  0  0  0  0  0  0  0
   -3.0314    0.5725   -1.5200 H   0  0  0  0  0  0  0  0  0  0  0  0
   -0.8051   -0.7237    2.6920 H   0  0  0  0  0  0  0  0  0  0  0  0
   -0.7074    1.0127   -1.2684 H   0  0  0  0  0  0  0  0  0  0  0  0
    1.1253   -0.0487    2.8986 H   0  0  0  0  0  0  0  0  0  0  0  0
    2.6142    0.3498    2.1164 H   0  0  0  0  0  0  0  0  0  0  0  0
    3.4942    1.9963    0.7710 H   0  0  0  0  0  0  0  0  0  0  0  0
    3.3953    0.3729    0.0726 H   0  0  0  0  0  0  0  0  0  0  0  0
    2.7349   -1.9658    3.6989 H   0  0  0  0  0  0  0  0  0  0  0  0
    1.3330   -1.7564   -0.3915 H   0  0  0  0  0  0  0  0  0  0  0  0
    3.2501    4.0192   -0.9382 H   0  0  0  0  0  0  0  0  0  0  0  0
    4.0665   -0.0304   -2.2042 H   0  0  0  0  0  0  0  0  0  0  0  0
    2.9021   -5.3372    1.3455 H   0  0  0  0  0  0  0  0  0  0  0  0
    4.9559    3.3731   -4.6342 H   0  0  0  0  0  0  0  0  0  0  0  0
  1  2  1  0
  2  3  1  0
  4  1  1  0
  5  4  1  0
  3  4  1  0
  6  5  2  0
  5  7  1  0
  8  6  1  0
  7  9  2  0
 10  8  2  0
  9 10  1  0
 11 10  1  0
 12 11  1  0
 11 13  1  0
 14 12  1  0
 13 15  2  0
 13 16  1  0
 17 14  2  0
 14 18  1  0
 16 19  1  0
 20 17  1  0
 18 21  2  0
 19 22  2  0
 23 19  1  0
 24 20  2  0
 25 21  1  0
 21 24  1  0
 22 26  1  0
 27 23  2  0
 26 28  2  0
 28 27  1  0
 27 29  1  0
  1 30  1  0
  1 31  1  0
  2 32  1  0
  2 33  1  0
  3 34  1  0
  3 35  1  0
  4 36  1  0
  6 37  1  0
  7 38  1  0
  8 39  1  0
  9 40  1  0
 12 41  1  0
 12 42  1  0
 16 43  1  0
 16 44  1  0
 17 45  1  0
 18 46  1  0
 22 47  1  0
 23 48  1  0
 24 49  1  0
 28 50  1  0
M  CHG  1   2   1
M  END
>  <IC50 (nM)>  (2) 
Compound 83"

>  <cluster>  (2) 
5225.0

>  <Column_4>  (2) 
3

>  <ScrubInfo>  (2) 
{"isomerGroup": 1, "isomerId": 0, "confId": 0, "nr_conformers:": 1, "nr_isomers:": 1}

$$$$
"US20240293380
     RDKit          3D

 52 56  0  0  0  0  0  0  0  0999 V2000
    0.4192    6.1587    1.8079 Cl  0  0  0  0  0  0  0  0  0  0  0  0
    0.9618    5.0307    0.6270 C   0  0  0  0  0  0  0  0  0  0  0  0
    2.2629    5.1177    0.1370 C   0  0  0  0  0  0  0  0  0  0  0  0
    2.7050    4.2015   -0.8162 C   0  0  0  0  0  0  0  0  0  0  0  0
    1.8451    3.2021   -1.2768 C   0  0  0  0  0  0  0  0  0  0  0  0
    0.5315    3.1092   -0.7913 C   0  0  0  0  0  0  0  0  0  0  0  0
   -0.3946    2.0107   -1.2712 C   0  0  0  0  0  0  0  0  0  0  0  0
   -0.4763    0.8815   -0.3316 N   0  0  0  0  0  0  0  0  0  0  0  0
   -1.5631    0.8574    0.5513 C   0  0  0  0  0  0  0  0  0  0  0  0
   -2.3505    1.8042    0.6382 O   0  0  0  0  0  0  0  0  0  0  0  0
   -1.7991   -0.4295    1.3509 C   0  0  0  0  0  0  0  0  0  0  0  0
   -3.2498   -0.7834    1.3724 C   0  0  0  0  0  0  0  0  0  0  0  0
   -4.1834   -0.6797    2.3839 C   0  0  0  0  0  0  0  0  0  0  0  0
   -5.4099   -1.1403    1.9856 N   0  0  0  0  0  0  0  0  0  0  0  0
   -5.2533   -1.5039    0.7311 C   0  0  0  0  0  0  0  0  0  0  0  0
   -6.1767   -2.0465   -0.2072 C   0  0  0  0  0  0  0  0  0  0  0  0
   -5.7658   -2.3504   -1.4535 C   0  0  0  0  0  0  0  0  0  0  0  0
   -4.3892   -2.1384   -1.8714 C   0  0  0  0  0  0  0  0  0  0  0  0
   -3.5123   -1.6249   -0.9918 C   0  0  0  0  0  0  0  0  0  0  0  0
   -3.9427   -1.3078    0.2989 N   0  0  0  0  0  0  0  0  0  0  0  0
    0.6800    0.0556   -0.2022 C   0  0  0  0  0  0  0  0  0  0  0  0
    1.2464   -0.1997    1.0518 C   0  0  0  0  0  0  0  0  0  0  0  0
    2.3951   -0.9916    1.1708 C   0  0  0  0  0  0  0  0  0  0  0  0
    3.0068   -1.5409    0.0380 C   0  0  0  0  0  0  0  0  0  0  0  0
    2.4500   -1.2697   -1.2173 C   0  0  0  0  0  0  0  0  0  0  0  0
    1.3028   -0.4751   -1.3367 C   0  0  0  0  0  0  0  0  0  0  0  0
    4.2010   -2.3613    0.1470 C   0  0  0  0  0  0  0  0  0  0  0  0
    5.2507   -2.5955   -0.7730 C   0  0  0  0  0  0  0  0  0  0  0  0
    6.1743   -3.4380   -0.3034 N   0  0  0  0  0  0  0  0  0  0  0  0
    5.7214   -3.7490    0.9209 N   0  0  0  0  0  0  0  0  0  0  0  0
    4.5443   -3.1333    1.2375 C   0  0  0  0  0  0  0  0  0  0  0  0
    0.0981    4.0356    0.1699 C   0  0  0  0  0  0  0  0  0  0  0  0
    2.9350    5.8931    0.4946 H   0  0  0  0  0  0  0  0  0  0  0  0
    3.7210    4.2635   -1.1981 H   0  0  0  0  0  0  0  0  0  0  0  0
    2.2118    2.4916   -2.0146 H   0  0  0  0  0  0  0  0  0  0  0  0
   -0.0830    1.6522   -2.2587 H   0  0  0  0  0  0  0  0  0  0  0  0
   -1.3925    2.4373   -1.4347 H   0  0  0  0  0  0  0  0  0  0  0  0
   -1.2494   -1.2777    0.9330 H   0  0  0  0  0  0  0  0  0  0  0  0
   -1.4422   -0.2604    2.3728 H   0  0  0  0  0  0  0  0  0  0  0  0
   -4.0321   -0.2979    3.3859 H   0  0  0  0  0  0  0  0  0  0  0  0
   -7.2016   -2.2013    0.1094 H   0  0  0  0  0  0  0  0  0  0  0  0
   -6.4604   -2.7628   -2.1790 H   0  0  0  0  0  0  0  0  0  0  0  0
   -4.1022   -2.3996   -2.8842 H   0  0  0  0  0  0  0  0  0  0  0  0
   -2.4757   -1.4448   -1.2411 H   0  0  0  0  0  0  0  0  0  0  0  0
    0.8414    0.2548    1.9525 H   0  0  0  0  0  0  0  0  0  0  0  0
    2.8175   -1.1470    2.1610 H   0  0  0  0  0  0  0  0  0  0  0  0
    2.8902   -1.6847   -2.1214 H   0  0  0  0  0  0  0  0  0  0  0  0
    0.8917   -0.3147   -2.3295 H   0  0  0  0  0  0  0  0  0  0  0  0
    5.3835   -2.1832   -1.7648 H   0  0  0  0  0  0  0  0  0  0  0  0
    6.2657   -4.3925    1.4862 H   0  0  0  0  0  0  0  0  0  0  0  0
    4.0669   -3.3109    2.1903 H   0  0  0  0  0  0  0  0  0  0  0  0
   -0.9151    3.9789    0.5641 H   0  0  0  0  0  0  0  0  0  0  0  0
  1  2  1  0
  2  3  2  0
  3  4  1  0
  4  5  2  0
  5  6  1  0
  6  7  1  0
  7  8  1  0
  8  9  1  0
  9 10  2  0
  9 11  1  0
 11 12  1  0
 12 13  2  0
 13 14  1  0
 14 15  2  0
 15 16  1  0
 16 17  2  0
 17 18  1  0
 18 19  2  0
 19 20  1  0
  8 21  1  0
 21 22  2  0
 22 23  1  0
 23 24  2  0
 24 25  1  0
 25 26  2  0
 24 27  1  0
 27 28  1  0
 28 29  2  0
 29 30  1  0
 30 31  1  0
  6 32  2  0
 32  2  1  0
 20 12  1  0
 26 21  1  0
 31 27  2  0
 20 15  1  0
  3 33  1  0
  4 34  1  0
  5 35  1  0
  7 36  1  0
  7 37  1  0
 11 38  1  0
 11 39  1  0
 13 40  1  0
 16 41  1  0
 17 42  1  0
 18 43  1  0
 19 44  1  0
 22 45  1  0
 23 46  1  0
 25 47  1  0
 26 48  1  0
 28 49  1  0
 30 50  1  0
 31 51  1  0
 32 52  1  0
M  END
>  <IC50 (nM)>  (3) 
Compound 4"

>  <cluster>  (3) 
1146.0

>  <Column_4>  (3) 
4

>  <ScrubInfo>  (3) 
{"isomerGroup": 2, "isomerId": 0, "confId": 0, "nr_conformers:": 1, "nr_isomers:": 1}

$$$$
"US20240293380
     RDKit          3D

 74 78  0  0  0  0  0  0  0  0999 V2000
    6.8538   -3.3122    2.5884 C   0  0  0  0  0  0  0  0  0  0  0  0
    7.4434   -2.2626    1.7082 N   0  0  0  0  0  0  0  0  0  0  0  0
    6.3299   -1.7757    0.8237 C   0  0  0  0  0  0  0  0  0  0  0  0
    5.3836   -3.1535    2.4417 C   0  0  0  0  0  0  0  0  0  0  0  0
    5.0750   -2.2798    1.4688 C   0  0  0  0  0  0  0  0  0  0  0  0
    3.7314   -1.8512    1.0482 C   0  0  0  0  0  0  0  0  0  0  0  0
    2.6210   -2.0199    1.8873 C   0  0  0  0  0  0  0  0  0  0  0  0
    3.5248   -1.2199   -0.1864 C   0  0  0  0  0  0  0  0  0  0  0  0
    1.3497   -1.5656    1.5127 C   0  0  0  0  0  0  0  0  0  0  0  0
    2.2555   -0.7601   -0.5604 C   0  0  0  0  0  0  0  0  0  0  0  0
    1.1592   -0.9167    0.2912 C   0  0  0  0  0  0  0  0  0  0  0  0
   -0.1269   -0.4233   -0.0719 N   0  0  0  0  0  0  0  0  0  0  0  0
   -1.2691   -1.3727   -0.0230 C   0  0  0  0  0  0  0  0  0  0  0  0
   -0.3342    0.8283   -0.6682 C   0  0  0  0  0  0  0  0  0  0  0  0
   -2.4917   -0.7406    0.6943 C   0  0  0  0  0  0  0  0  0  0  0  0
   -1.4716   -2.1419   -1.3283 C   0  0  0  0  0  0  0  0  0  0  0  0
   -1.3411    1.0837   -1.3310 O   0  0  0  0  0  0  0  0  0  0  0  0
    0.7041    1.9158   -0.3933 C   0  0  0  0  0  0  0  0  0  0  0  0
   -3.7421   -1.2151    0.3430 N   0  0  0  0  0  0  0  0  0  0  0  0
   -2.3100    0.0464    1.6255 O   0  0  0  0  0  0  0  0  0  0  0  0
   -0.9464   -3.4467   -1.4294 C   0  0  0  0  0  0  0  0  0  0  0  0
   -2.1212   -1.6111   -2.4548 C   0  0  0  0  0  0  0  0  0  0  0  0
    0.0996    3.2222    0.0779 C   0  0  0  0  0  0  0  0  0  0  0  0
   -5.0119   -0.6782    0.8626 C   0  0  0  0  0  0  0  0  0  0  0  0
   -1.0841   -4.1871   -2.6035 C   0  0  0  0  0  0  0  0  0  0  0  0
   -2.2474   -2.3736   -3.6198 C   0  0  0  0  0  0  0  0  0  0  0  0
   -0.5331    3.2299    1.3262 C   0  0  0  0  0  0  0  0  0  0  0  0
    0.1915    4.4501   -0.6283 C   0  0  0  0  0  0  0  0  0  0  0  0
   -5.1197   -0.8673    2.3842 C   0  0  0  0  0  0  0  0  0  0  0  0
   -5.1642    0.8038    0.4919 C   0  0  0  0  0  0  0  0  0  0  0  0
   -6.1589   -1.4651    0.2053 C   0  0  0  0  0  0  0  0  0  0  0  0
   -0.5760   -5.4259   -2.6530 F   0  0  0  0  0  0  0  0  0  0  0  0
   -1.7374   -3.6625   -3.7055 C   0  0  0  0  0  0  0  0  0  0  0  0
   -2.8736   -1.8490   -4.6791 F   0  0  0  0  0  0  0  0  0  0  0  0
   -1.0154    4.3298    1.9375 N   0  0  0  0  0  0  0  0  0  0  0  0
    0.7506    4.6014   -1.9201 C   0  0  0  0  0  0  0  0  0  0  0  0
   -0.3121    5.6156   -0.0024 C   0  0  0  0  0  0  0  0  0  0  0  0
   -0.8985    5.4898    1.2582 C   0  0  0  0  0  0  0  0  0  0  0  0
    0.8249    5.8506   -2.5495 C   0  0  0  0  0  0  0  0  0  0  0  0
   -0.2301    6.8654   -0.6430 C   0  0  0  0  0  0  0  0  0  0  0  0
    0.3389    6.9828   -1.9093 C   0  0  0  0  0  0  0  0  0  0  0  0
    7.2026   -3.1258    3.6061 H   0  0  0  0  0  0  0  0  0  0  0  0
    7.2012   -4.2844    2.2345 H   0  0  0  0  0  0  0  0  0  0  0  0
    7.7626   -1.4727    2.2805 H   0  0  0  0  0  0  0  0  0  0  0  0
    8.2409   -2.6132    1.1700 H   0  0  0  0  0  0  0  0  0  0  0  0
    6.4900   -2.2103   -0.1666 H   0  0  0  0  0  0  0  0  0  0  0  0
    6.3970   -0.6835    0.7920 H   0  0  0  0  0  0  0  0  0  0  0  0
    4.6820   -3.6981    3.0620 H   0  0  0  0  0  0  0  0  0  0  0  0
    2.7148   -2.4824    2.8682 H   0  0  0  0  0  0  0  0  0  0  0  0
    4.3370   -1.0663   -0.8935 H   0  0  0  0  0  0  0  0  0  0  0  0
    0.5288   -1.6741    2.2210 H   0  0  0  0  0  0  0  0  0  0  0  0
    2.1330   -0.2968   -1.5394 H   0  0  0  0  0  0  0  0  0  0  0  0
   -1.0119   -2.1493    0.7145 H   0  0  0  0  0  0  0  0  0  0  0  0
    1.3989    1.6177    0.3981 H   0  0  0  0  0  0  0  0  0  0  0  0
    1.3028    2.0277   -1.2989 H   0  0  0  0  0  0  0  0  0  0  0  0
   -3.8157   -1.7218   -0.5278 H   0  0  0  0  0  0  0  0  0  0  0  0
   -0.4232   -3.9095   -0.5943 H   0  0  0  0  0  0  0  0  0  0  0  0
   -2.5405   -0.6060   -2.4563 H   0  0  0  0  0  0  0  0  0  0  0  0
   -0.6574    2.3145    1.9003 H   0  0  0  0  0  0  0  0  0  0  0  0
   -4.3636   -0.2928    2.9219 H   0  0  0  0  0  0  0  0  0  0  0  0
   -6.0959   -0.5391    2.7567 H   0  0  0  0  0  0  0  0  0  0  0  0
   -4.9878   -1.9201    2.6592 H   0  0  0  0  0  0  0  0  0  0  0  0
   -4.4198    1.4310    0.9992 H   0  0  0  0  0  0  0  0  0  0  0  0
   -6.1585    1.1806    0.7624 H   0  0  0  0  0  0  0  0  0  0  0  0
   -5.0342    0.9493   -0.5888 H   0  0  0  0  0  0  0  0  0  0  0  0
   -6.1416   -1.3507   -0.8847 H   0  0  0  0  0  0  0  0  0  0  0  0
   -7.1377   -1.1285    0.5665 H   0  0  0  0  0  0  0  0  0  0  0  0
   -6.0745   -2.5377    0.4210 H   0  0  0  0  0  0  0  0  0  0  0  0
   -1.8467   -4.2396   -4.6166 H   0  0  0  0  0  0  0  0  0  0  0  0
    1.1078    3.7452   -2.4850 H   0  0  0  0  0  0  0  0  0  0  0  0
   -1.3154    6.3548    1.7715 H   0  0  0  0  0  0  0  0  0  0  0  0
    1.2423    5.9309   -3.5509 H   0  0  0  0  0  0  0  0  0  0  0  0
   -0.6237    7.7569   -0.1579 H   0  0  0  0  0  0  0  0  0  0  0  0
    0.3864    7.9555   -2.3960 H   0  0  0  0  0  0  0  0  0  0  0  0
  1  2  1  0
  2  3  1  0
  4  1  1  0
  5  4  2  0
  6  5  1  0
  3  5  1  0
  7  6  2  0
  6  8  1  0
  9  7  1  0
  8 10  2  0
 11  9  2  0
 10 11  1  0
 12 11  1  0
 13 12  1  0
 12 14  1  0
 15 13  1  0
 13 16  1  0
 14 17  2  0
 14 18  1  0
 19 15  1  0
 15 20  2  0
 16 21  2  0
 22 16  1  0
 18 23  1  0
 24 19  1  0
 21 25  1  0
 26 22  2  0
 23 27  2  0
 28 23  1  0
 29 24  1  0
 24 30  1  0
 24 31  1  0
 25 32  1  0
 25 33  2  0
 33 26  1  0
 26 34  1  0
 27 35  1  0
 36 28  2  0
 28 37  1  0
 35 38  2  0
 39 36  1  0
 38 37  1  0
 37 40  2  0
 41 39  2  0
 40 41  1  0
  1 42  1  0
  1 43  1  0
  2 44  1  0
  2 45  1  0
  3 46  1  0
  3 47  1  0
  4 48  1  0
  7 49  1  0
  8 50  1  0
  9 51  1  0
 10 52  1  0
 13 53  1  0
 18 54  1  0
 18 55  1  0
 19 56  1  0
 21 57  1  0
 22 58  1  0
 27 59  1  0
 29 60  1  0
 29 61  1  0
 29 62  1  0
 30 63  1  0
 30 64  1  0
 30 65  1  0
 31 66  1  0
 31 67  1  0
 31 68  1  0
 33 69  1  0
 36 70  1  0
 38 71  1  0
 39 72  1  0
 40 73  1  0
 41 74  1  0
M  CHG  1   2   1
M  END
>  <IC50 (nM)>  (4) 
Compound 63"

>  <cluster>  (4) 
1027.0

>  <Column_4>  (4) 
2

>  <ScrubInfo>  (4) 
{"isomerGroup": 3, "isomerId": 0, "confId": 0, "nr_conformers:": 1, "nr_isomers:": 1}

$$$$
"US20240293380_i0
     RDKit          3D

 54 58  0  0  0  0  0  0  0  0999 V2000
   -0.5084    5.8136    2.6113 F   0  0  0  0  0  0  0  0  0  0  0  0
    0.0240    5.1660    1.5666 C   0  0  0  0  0  0  0  0  0  0  0  0
    1.2619    5.5627    1.0799 C   0  0  0  0  0  0  0  0  0  0  0  0
    1.8087    4.8819   -0.0019 C   0  0  0  0  0  0  0  0  0  0  0  0
    3.3451    5.3523   -0.6177 Cl  0  0  0  0  0  0  0  0  0  0  0  0
    1.1239    3.8173   -0.5936 C   0  0  0  0  0  0  0  0  0  0  0  0
   -0.1306    3.4189   -0.1032 C   0  0  0  0  0  0  0  0  0  0  0  0
   -0.8671    2.2477   -0.7199 C   0  0  0  0  0  0  0  0  0  0  0  0
   -0.6233    0.9838   -0.0097 N   0  0  0  0  0  0  0  0  0  0  0  0
   -1.5626    0.5974    0.9505 C   0  0  0  0  0  0  0  0  0  0  0  0
   -2.4666    1.3522    1.3223 O   0  0  0  0  0  0  0  0  0  0  0  0
   -1.4985   -0.8329    1.4859 C   0  0  0  0  0  0  0  0  0  0  0  0
   -2.8366   -1.5329    1.3985 C   0  0  0  0  0  0  0  0  0  0  0  0
   -3.6752   -1.5163    2.5137 C   0  0  0  0  0  0  0  0  0  0  0  0
   -4.8866   -2.1050    2.5689 N   0  0  0  0  0  0  0  0  0  0  0  0
   -5.3026   -2.7235    1.4434 C   0  0  0  0  0  0  0  0  0  0  0  0
   -4.5723   -2.7927    0.2562 C   0  0  0  0  0  0  0  0  0  0  0  0
   -5.0779   -3.4498   -0.8802 C   0  0  0  0  0  0  0  0  0  0  0  0
   -4.3356   -3.5060   -2.0577 C   0  0  0  0  0  0  0  0  0  0  0  0
   -3.0834   -2.9066   -2.1110 C   0  0  0  0  0  0  0  0  0  0  0  0
   -2.5720   -2.2513   -0.9870 C   0  0  0  0  0  0  0  0  0  0  0  0
   -3.3002   -2.1790    0.2240 C   0  0  0  0  0  0  0  0  0  0  0  0
    0.6676    0.3936   -0.1497 C   0  0  0  0  0  0  0  0  0  0  0  0
    1.2269    0.2040   -1.4169 C   0  0  0  0  0  0  0  0  0  0  0  0
    2.5047   -0.3500   -1.5546 C   0  0  0  0  0  0  0  0  0  0  0  0
    3.2606   -0.7134   -0.4325 C   0  0  0  0  0  0  0  0  0  0  0  0
    2.7048   -0.5080    0.8354 C   0  0  0  0  0  0  0  0  0  0  0  0
    1.4234    0.0415    0.9752 C   0  0  0  0  0  0  0  0  0  0  0  0
    4.5874   -1.2819   -0.6198 C   0  0  0  0  0  0  0  0  0  0  0  0
    5.4887   -1.6318    0.3637 C   0  0  0  0  0  0  0  0  0  0  0  0
    6.5840   -2.1122   -0.3031 N   0  0  0  0  0  0  0  0  0  0  0  0
    6.3168   -2.0417   -1.6393 C   0  0  0  0  0  0  0  0  0  0  0  0
    5.1223   -1.5462   -1.8633 N   0  0  0  0  0  0  0  0  0  0  0  0
   -0.6730    4.1069    0.9914 C   0  0  0  0  0  0  0  0  0  0  0  0
    1.7823    6.3907    1.5487 H   0  0  0  0  0  0  0  0  0  0  0  0
    1.5746    3.2935   -1.4340 H   0  0  0  0  0  0  0  0  0  0  0  0
   -1.9423    2.4687   -0.7274 H   0  0  0  0  0  0  0  0  0  0  0  0
   -0.5992    2.1451   -1.7774 H   0  0  0  0  0  0  0  0  0  0  0  0
   -0.7587   -1.4505    0.9724 H   0  0  0  0  0  0  0  0  0  0  0  0
   -1.1699   -0.7769    2.5313 H   0  0  0  0  0  0  0  0  0  0  0  0
   -3.3842   -1.0068    3.4295 H   0  0  0  0  0  0  0  0  0  0  0  0
   -6.2861   -3.1795    1.5247 H   0  0  0  0  0  0  0  0  0  0  0  0
   -6.0580   -3.9216   -0.8528 H   0  0  0  0  0  0  0  0  0  0  0  0
   -4.7352   -4.0158   -2.9304 H   0  0  0  0  0  0  0  0  0  0  0  0
   -2.4993   -2.9476   -3.0270 H   0  0  0  0  0  0  0  0  0  0  0  0
   -1.5886   -1.7977   -1.0772 H   0  0  0  0  0  0  0  0  0  0  0  0
    0.6755    0.4467   -2.3207 H   0  0  0  0  0  0  0  0  0  0  0  0
    2.9125   -0.4998   -2.5537 H   0  0  0  0  0  0  0  0  0  0  0  0
    3.2588   -0.7594    1.7357 H   0  0  0  0  0  0  0  0  0  0  0  0
    1.0526    0.2299    1.9796 H   0  0  0  0  0  0  0  0  0  0  0  0
    5.4621   -1.5842    1.4423 H   0  0  0  0  0  0  0  0  0  0  0  0
    7.4388   -2.4561    0.1127 H   0  0  0  0  0  0  0  0  0  0  0  0
    7.0233   -2.3619   -2.3937 H   0  0  0  0  0  0  0  0  0  0  0  0
   -1.6375    3.8246    1.4082 H   0  0  0  0  0  0  0  0  0  0  0  0
  1  2  1  0
  2  3  2  0
  3  4  1  0
  4  5  1  0
  4  6  2  0
  6  7  1  0
  7  8  1  0
  8  9  1  0
  9 10  1  0
 10 11  2  0
 10 12  1  0
 12 13  1  0
 13 14  2  0
 14 15  1  0
 15 16  2  0
 16 17  1  0
 17 18  2  0
 18 19  1  0
 19 20  2  0
 20 21  1  0
 21 22  2  0
  9 23  1  0
 23 24  2  0
 24 25  1  0
 25 26  2  0
 26 27  1  0
 27 28  2  0
 26 29  1  0
 29 30  2  0
 30 31  1  0
 31 32  1  0
 32 33  2  0
  7 34  2  0
 34  2  1  0
 22 13  1  0
 28 23  1  0
 33 29  1  0
 22 17  1  0
  3 35  1  0
  6 36  1  0
  8 37  1  0
  8 38  1  0
 12 39  1  0
 12 40  1  0
 14 41  1  0
 16 42  1  0
 18 43  1  0
 19 44  1  0
 20 45  1  0
 21 46  1  0
 24 47  1  0
 25 48  1  0
 27 49  1  0
 28 50  1  0
 30 51  1  0
 31 52  1  0
 32 53  1  0
 34 54  1  0
M  END
>  <IC50 (nM)>  (5) 
Compound 12"

>  <cluster>  (5) 
15.0

>  <Column_4>  (5) 
0

>  <ScrubInfo>  (5) 
{"isomerGroup": 4, "isomerId": 0, "confId": 0, "nr_conformers:": 1, "nr_isomers:": 2}

$$$$
"US20240293380_i1
     RDKit          3D

 54 58  0  0  0  0  0  0  0  0999 V2000
   -7.0464   -1.6609   -0.0559 N   0  0  0  0  0  0  0  0  0  0  0  0
   -8.0930   -2.3633    0.4673 C   0  0  0  0  0  0  0  0  0  0  0  0
   -7.6823   -3.2828    1.3065 N   0  0  0  0  0  0  0  0  0  0  0  0
   -6.3158   -3.1638    1.3247 C   0  0  0  0  0  0  0  0  0  0  0  0
   -5.8789   -2.1591    0.4785 C   0  0  0  0  0  0  0  0  0  0  0  0
   -4.5446   -1.6518    0.1730 C   0  0  0  0  0  0  0  0  0  0  0  0
   -4.2434   -1.0894   -1.0708 C   0  0  0  0  0  0  0  0  0  0  0  0
   -2.9557   -0.6062   -1.3515 C   0  0  0  0  0  0  0  0  0  0  0  0
   -1.9283   -0.6712   -0.3998 C   0  0  0  0  0  0  0  0  0  0  0  0
   -0.6101   -0.1484   -0.6718 N   0  0  0  0  0  0  0  0  0  0  0  0
   -0.5132    1.0553   -1.5201 C   0  0  0  0  0  0  0  0  0  0  0  0
   -0.1466    2.3093   -0.7506 C   0  0  0  0  0  0  0  0  0  0  0  0
    0.8364    3.1791   -1.2452 C   0  0  0  0  0  0  0  0  0  0  0  0
    1.1611    4.3386   -0.5449 C   0  0  0  0  0  0  0  0  0  0  0  0
    2.1126    5.1480   -1.0273 F   0  0  0  0  0  0  0  0  0  0  0  0
    0.5193    4.6698    0.6399 C   0  0  0  0  0  0  0  0  0  0  0  0
   -0.4716    3.8246    1.1257 C   0  0  0  0  0  0  0  0  0  0  0  0
   -1.2946    4.2238    2.5828 Cl  0  0  0  0  0  0  0  0  0  0  0  0
   -0.8102    2.6554    0.4388 C   0  0  0  0  0  0  0  0  0  0  0  0
    0.5301   -0.7856   -0.1297 C   0  0  0  0  0  0  0  0  0  0  0  0
    0.4728   -1.8410    0.5058 O   0  0  0  0  0  0  0  0  0  0  0  0
    1.8838   -0.0997   -0.3473 C   0  0  0  0  0  0  0  0  0  0  0  0
    3.1279   -0.9447   -0.1337 C   0  0  0  0  0  0  0  0  0  0  0  0
    3.1525   -2.2700   -0.5785 C   0  0  0  0  0  0  0  0  0  0  0  0
    4.2225   -3.0882   -0.5071 N   0  0  0  0  0  0  0  0  0  0  0  0
    5.3386   -2.5687    0.0414 C   0  0  0  0  0  0  0  0  0  0  0  0
    5.4605   -1.2592    0.5021 C   0  0  0  0  0  0  0  0  0  0  0  0
    6.6740   -0.7901    1.0376 C   0  0  0  0  0  0  0  0  0  0  0  0
    6.7978    0.5262    1.4728 C   0  0  0  0  0  0  0  0  0  0  0  0
    5.7121    1.3852    1.3738 C   0  0  0  0  0  0  0  0  0  0  0  0
    4.5002    0.9265    0.8466 C   0  0  0  0  0  0  0  0  0  0  0  0
    4.3337   -0.4095    0.4040 C   0  0  0  0  0  0  0  0  0  0  0  0
   -2.2375   -1.2461    0.8399 C   0  0  0  0  0  0  0  0  0  0  0  0
   -3.5231   -1.7290    1.1224 C   0  0  0  0  0  0  0  0  0  0  0  0
   -7.1228   -0.8907   -0.7037 H   0  0  0  0  0  0  0  0  0  0  0  0
   -9.1222   -2.1588    0.2039 H   0  0  0  0  0  0  0  0  0  0  0  0
   -5.7125   -3.8150    1.9447 H   0  0  0  0  0  0  0  0  0  0  0  0
   -4.9916   -1.0477   -1.8582 H   0  0  0  0  0  0  0  0  0  0  0  0
   -2.7774   -0.2381   -2.3573 H   0  0  0  0  0  0  0  0  0  0  0  0
    0.2180    0.8527   -2.3102 H   0  0  0  0  0  0  0  0  0  0  0  0
   -1.4499    1.2808   -2.0358 H   0  0  0  0  0  0  0  0  0  0  0  0
    1.3643    2.9689   -2.1721 H   0  0  0  0  0  0  0  0  0  0  0  0
    0.7919    5.5800    1.1633 H   0  0  0  0  0  0  0  0  0  0  0  0
   -1.5950    2.0138    0.8366 H   0  0  0  0  0  0  0  0  0  0  0  0
    1.8795    0.7360    0.3563 H   0  0  0  0  0  0  0  0  0  0  0  0
    1.9651    0.2836   -1.3666 H   0  0  0  0  0  0  0  0  0  0  0  0
    2.2792   -2.7370   -1.0290 H   0  0  0  0  0  0  0  0  0  0  0  0
    6.1729   -3.2638    0.0933 H   0  0  0  0  0  0  0  0  0  0  0  0
    7.5346   -1.4519    1.1140 H   0  0  0  0  0  0  0  0  0  0  0  0
    7.7397    0.8793    1.8842 H   0  0  0  0  0  0  0  0  0  0  0  0
    5.8023    2.4160    1.7078 H   0  0  0  0  0  0  0  0  0  0  0  0
    3.6877    1.6451    0.7913 H   0  0  0  0  0  0  0  0  0  0  0  0
   -1.4949   -1.3101    1.6321 H   0  0  0  0  0  0  0  0  0  0  0  0
   -3.7094   -2.1564    2.1056 H   0  0  0  0  0  0  0  0  0  0  0  0
  1  2  1  0
  2  3  2  0
  3  4  1  0
  4  5  2  0
  5  6  1  0
  6  7  2  0
  7  8  1  0
  8  9  2  0
  9 10  1  0
 10 11  1  0
 11 12  1  0
 12 13  2  0
 13 14  1  0
 14 15  1  0
 14 16  2  0
 16 17  1  0
 17 18  1  0
 17 19  2  0
 10 20  1  0
 20 21  2  0
 20 22  1  0
 22 23  1  0
 23 24  2  0
 24 25  1  0
 25 26  2  0
 26 27  1  0
 27 28  2  0
 28 29  1  0
 29 30  2  0
 30 31  1  0
 31 32  2  0
  9 33  1  0
 33 34  2  0
  5  1  1  0
 34  6  1  0
 19 12  1  0
 32 23  1  0
 32 27  1  0
  1 35  1  0
  2 36  1  0
  4 37  1  0
  7 38  1  0
  8 39  1  0
 11 40  1  0
 11 41  1  0
 13 42  1  0
 16 43  1  0
 19 44  1  0
 22 45  1  0
 22 46  1  0
 24 47  1  0
 26 48  1  0
 28 49  1  0
 29 50  1  0
 30 51  1  0
 31 52  1  0
 33 53  1  0
 34 54  1  0
M  END
>  <IC50 (nM)>  (6) 
Compound 12"

>  <cluster>  (6) 
15.0

>  <Column_4>  (6) 
0

>  <ScrubInfo>  (6) 
{"isomerGroup": 4, "isomerId": 1, "confId": 0, "nr_conformers:": 1, "nr_isomers:": 2}

$$$$
