6 ENGINEERED: YES
     RDKit          3D

 52 56  0  0  0  0  0  0  0  0999 V2000
   -5.6962    1.4794   -0.3755 C   0  0  0  0  0  0  0  0  0  0  0  0
   -5.5522    1.0608   -1.6709 N   0  0  0  0  0  0  0  0  0  0  0  0
   -0.9105   -0.2362   -0.6548 N   0  0  0  0  0  0  0  0  0  0  0  0
   -1.0540   -1.6312   -2.6759 C   0  0  0  0  0  0  0  0  0  0  0  0
    0.4307    0.0930   -0.2237 C   0  0  0  0  0  0  0  0  0  0  0  0
    3.0997    0.6499    0.6067 C   0  0  0  0  0  0  0  0  0  0  0  0
    0.0474   -2.5284   -2.4584 C   0  0  0  0  0  0  0  0  0  0  0  0
   -0.1003   -3.7273   -3.1196 C   0  0  0  0  0  0  0  0  0  0  0  0
   -1.9783   -2.2054   -3.5334 C   0  0  0  0  0  0  0  0  0  0  0  0
   -1.8996   -0.5410    0.2982 C   0  0  0  0  0  0  0  0  0  0  0  0
   -3.2288   -1.1109   -0.1554 C   0  0  0  0  0  0  0  0  0  0  0  0
   -4.8411    0.7555    0.4481 C   0  0  0  0  0  0  0  0  0  0  0  0
   -4.7680    0.9566    1.8304 C   0  0  0  0  0  0  0  0  0  0  0  0
   -5.6055    1.9406    2.3697 C   0  0  0  0  0  0  0  0  0  0  0  0
   -6.4720    2.6814    1.5622 C   0  0  0  0  0  0  0  0  0  0  0  0
   -6.5287    2.4610    0.1802 C   0  0  0  0  0  0  0  0  0  0  0  0
   -1.1879   -0.2439   -2.1032 C   0  0  0  0  0  0  0  0  0  0  0  0
    1.2465    0.9790   -0.9400 C   0  0  0  0  0  0  0  0  0  0  0  0
    2.5596    1.2558   -0.5291 C   0  0  0  0  0  0  0  0  0  0  0  0
    5.1640    0.4894    2.0034 C   0  0  0  0  0  0  0  0  0  0  0  0
    6.5355    1.0706    2.0636 C   0  0  0  0  0  0  0  0  0  0  0  0
    7.4799    0.9845    0.8859 C   0  0  0  0  0  0  0  0  0  0  0  0
    7.7333    0.1495    2.1054 C   0  0  0  0  0  0  0  0  0  0  0  0
    2.3012   -0.2298    1.3290 C   0  0  0  0  0  0  0  0  0  0  0  0
    0.9862   -0.5006    0.9193 C   0  0  0  0  0  0  0  0  0  0  0  0
   -4.2026   -0.0799   -0.4299 N   0  0  0  0  0  0  0  0  0  0  0  0
   -4.6489    0.0907   -1.6925 N   0  0  0  0  0  0  0  0  0  0  0  0
    4.4260    0.9758    0.9476 N   0  0  0  0  0  0  0  0  0  0  0  0
   -1.7490   -0.3591    1.5132 O   0  0  0  0  0  0  0  0  0  0  0  0
    4.8210   -0.3087    2.8609 O   0  0  0  0  0  0  0  0  0  0  0  0
   -1.5490   -3.7865   -4.0199 S   0  0  0  0  0  0  0  0  0  0  0  0
    0.9111   -2.3083   -1.8411 H   0  0  0  0  0  0  0  0  0  0  0  0
    0.5766   -4.5711   -3.1194 H   0  0  0  0  0  0  0  0  0  0  0  0
   -2.9027   -1.7717   -3.8956 H   0  0  0  0  0  0  0  0  0  0  0  0
   -3.1348   -1.7667   -1.0196 H   0  0  0  0  0  0  0  0  0  0  0  0
   -3.6353   -1.7329    0.6514 H   0  0  0  0  0  0  0  0  0  0  0  0
   -4.0911    0.3913    2.4638 H   0  0  0  0  0  0  0  0  0  0  0  0
   -5.5766    2.1333    3.4409 H   0  0  0  0  0  0  0  0  0  0  0  0
   -7.1101    3.4397    2.0107 H   0  0  0  0  0  0  0  0  0  0  0  0
   -7.2000    3.0322   -0.4514 H   0  0  0  0  0  0  0  0  0  0  0  0
   -2.1925    0.1449   -2.2729 H   0  0  0  0  0  0  0  0  0  0  0  0
   -0.5290    0.4207   -2.6644 H   0  0  0  0  0  0  0  0  0  0  0  0
    0.8839    1.5243   -1.8048 H   0  0  0  0  0  0  0  0  0  0  0  0
    3.1450    1.9615   -1.1133 H   0  0  0  0  0  0  0  0  0  0  0  0
    6.5986    1.9494    2.6978 H   0  0  0  0  0  0  0  0  0  0  0  0
    8.1412    1.8236    0.7028 H   0  0  0  0  0  0  0  0  0  0  0  0
    7.1624    0.4641   -0.0109 H   0  0  0  0  0  0  0  0  0  0  0  0
    7.5560   -0.9193    2.0451 H   0  0  0  0  0  0  0  0  0  0  0  0
    8.5559    0.4233    2.7562 H   0  0  0  0  0  0  0  0  0  0  0  0
    2.6635   -0.7306    2.2219 H   0  0  0  0  0  0  0  0  0  0  0  0
    0.4243   -1.2189    1.5119 H   0  0  0  0  0  0  0  0  0  0  0  0
    4.8952    1.6425    0.3494 H   0  0  0  0  0  0  0  0  0  0  0  0
  1  2  1  0
  1 12  2  0
  1 16  1  0
  2 27  2  0
  3  5  1  0
  3 10  1  0
  3 17  1  0
  4  7  1  0
  4  9  2  0
  4 17  1  0
  5 18  2  0
  5 25  1  0
  6 19  2  0
  6 24  1  0
  6 28  1  0
  7  8  2  0
  8 31  1  0
  9 31  1  0
 10 11  1  0
 10 29  2  0
 11 26  1  0
 12 13  1  0
 12 26  1  0
 13 14  2  0
 14 15  1  0
 15 16  2  0
 18 19  1  0
 20 21  1  0
 20 28  1  0
 20 30  2  0
 21 22  1  0
 21 23  1  0
 22 23  1  0
 24 25  2  0
 26 27  1  0
  7 32  1  0
  8 33  1  0
  9 34  1  0
 11 35  1  0
 11 36  1  0
 13 37  1  0
 14 38  1  0
 15 39  1  0
 16 40  1  0
 17 41  1  0
 17 42  1  0
 18 43  1  0
 19 44  1  0
 21 45  1  0
 22 46  1  0
 22 47  1  0
 23 48  1  0
 23 49  1  0
 24 50  1  0
 25 51  1  0
 28 52  1  0
M  END
>  <ScrubInfo>  (1) 
{"isomerGroup": 0, "isomerId": 0, "confId": 0, "nr_conformers:": 1, "nr_isomers:": 1}

$$$$
