6 ENGINEERED: YES
     RDKit          3D

 31 35  0  0  0  0  0  0  0  0999 V2000
   22.1100    1.1250   18.6290 C   0  0  0  0  0  0  0  0  0  0  0  0
   21.1230    0.6020   17.8220 N   0  0  0  0  0  0  0  0  0  0  0  0
   25.5760    0.1650   14.0050 N   0  0  0  0  0  0  0  0  0  0  0  0
   25.1860    0.6510   11.6850 C   0  0  0  0  0  0  0  0  0  0  0  0
   26.2970   -1.1030   14.2330 C   0  0  0  0  0  0  0  0  0  0  0  0
   27.6520   -3.4870   14.6740 C   0  0  0  0  0  0  0  0  0  0  0  0
   24.9460    1.4720   10.4180 C   0  0  0  0  0  0  0  0  0  0  0  0
   24.1250    0.6970    9.5180 C   0  0  0  0  0  0  0  0  0  0  0  0
   24.5110   -0.6160   11.5710 C   0  0  0  0  0  0  0  0  0  0  0  0
   24.4180    0.4830   14.8670 C   0  0  0  0  0  0  0  0  0  0  0  0
   24.0160   -0.5260   15.9810 C   0  0  0  0  0  0  0  0  0  0  0  0
   23.3280    0.7660   18.0420 C   0  0  0  0  0  0  0  0  0  0  0  0
   24.5530    1.1700   18.6450 C   0  0  0  0  0  0  0  0  0  0  0  0
   24.5420    1.9260   19.8240 C   0  0  0  0  0  0  0  0  0  0  0  0
   23.3110    2.2780   20.4180 C   0  0  0  0  0  0  0  0  0  0  0  0
   22.1000    1.8850   19.8270 C   0  0  0  0  0  0  0  0  0  0  0  0
   25.9980    1.0790   12.9240 C   0  0  0  0  0  0  0  0  0  0  0  0
   25.8130   -2.3020   13.7010 C   0  0  0  0  0  0  0  0  0  0  0  0
   26.4870   -3.5020   13.9120 C   0  0  0  0  0  0  0  0  0  0  0  0
   29.7940   -4.8630   14.6950 C   0  0  0  0  0  0  0  0  0  0  0  0
   30.4630   -6.2160   14.9970 C   0  0  0  0  0  0  0  0  0  0  0  0
   30.0740   -6.7810   16.3630 C   0  0  0  0  0  0  0  0  0  0  0  0
   31.4840   -6.2300   16.1390 C   0  0  0  0  0  0  0  0  0  0  0  0
   28.1370   -2.2880   15.2160 C   0  0  0  0  0  0  0  0  0  0  0  0
   27.4640   -1.0920   14.9970 C   0  0  0  0  0  0  0  0  0  0  0  0
   23.0330    0.0450   16.9090 N   0  0  0  0  0  0  0  0  0  0  0  0
   21.7060   -0.0420   16.7890 N   0  0  0  0  0  0  0  0  0  0  0  0
   28.3600   -4.7450   14.9220 N   0  0  0  0  0  0  0  0  0  0  0  0
   23.8210    1.5010   14.7080 O   0  0  0  0  0  0  0  0  0  0  0  0
   30.4220   -3.9430   14.2880 O   0  0  0  0  0  0  0  0  0  0  0  0
   23.7500   -0.7580   10.1500 S   0  0  0  0  0  0  0  0  0  0  0  0
  1  2  1  0
  1 12  2  0
  1 16  1  0
  2 27  2  0
  3  5  1  0
  3 10  1  0
  3 17  1  0
  4  7  1  0
  4  9  2  0
  4 17  1  0
  5 18  2  0
  5 25  1  0
  6 19  2  0
  6 24  1  0
  6 28  1  0
  7  8  2  0
  8 31  1  0
  9 31  1  0
 10 11  1  0
 10 29  2  0
 11 26  1  0
 12 13  1  0
 12 26  1  0
 13 14  2  0
 14 15  1  0
 15 16  2  0
 18 19  1  0
 20 21  1  0
 20 28  2  3
 20 30  1  0
 21 22  1  0
 21 23  1  0
 22 23  1  0
 24 25  2  0
 26 27  1  0
M  END
$$$$
6 ENGINEERED: YES
     RDKit          3D

 31 35  0  0  0  0  0  0  0  0999 V2000
   22.1100    1.1250   18.6290 C   0  0  0  0  0  0  0  0  0  0  0  0
   21.1230    0.6020   17.8220 N   0  0  0  0  0  0  0  0  0  0  0  0
   25.5760    0.1650   14.0050 N   0  0  0  0  0  0  0  0  0  0  0  0
   25.1860    0.6510   11.6850 C   0  0  0  0  0  0  0  0  0  0  0  0
   26.2970   -1.1030   14.2330 C   0  0  0  0  0  0  0  0  0  0  0  0
   27.6520   -3.4870   14.6740 C   0  0  0  0  0  0  0  0  0  0  0  0
   24.9460    1.4720   10.4180 C   0  0  0  0  0  0  0  0  0  0  0  0
   24.1250    0.6970    9.5180 C   0  0  0  0  0  0  0  0  0  0  0  0
   24.5110   -0.6160   11.5710 C   0  0  0  0  0  0  0  0  0  0  0  0
   24.4180    0.4830   14.8670 C   0  0  0  0  0  0  0  0  0  0  0  0
   24.0160   -0.5260   15.9810 C   0  0  0  0  0  0  0  0  0  0  0  0
   23.3280    0.7660   18.0420 C   0  0  0  0  0  0  0  0  0  0  0  0
   24.5530    1.1700   18.6450 C   0  0  0  0  0  0  0  0  0  0  0  0
   24.5420    1.9260   19.8240 C   0  0  0  0  0  0  0  0  0  0  0  0
   23.3110    2.2780   20.4180 C   0  0  0  0  0  0  0  0  0  0  0  0
   22.1000    1.8850   19.8270 C   0  0  0  0  0  0  0  0  0  0  0  0
   25.9980    1.0790   12.9240 C   0  0  0  0  0  0  0  0  0  0  0  0
   25.8130   -2.3020   13.7010 C   0  0  0  0  0  0  0  0  0  0  0  0
   26.4870   -3.5020   13.9120 C   0  0  0  0  0  0  0  0  0  0  0  0
   29.7940   -4.8630   14.6950 C   0  0  0  0  0  0  0  0  0  0  0  0
   30.4630   -6.2160   14.9970 C   0  0  0  0  0  0  0  0  0  0  0  0
   30.0740   -6.7810   16.3630 C   0  0  0  0  0  0  0  0  0  0  0  0
   31.4840   -6.2300   16.1390 C   0  0  0  0  0  0  0  0  0  0  0  0
   28.1370   -2.2880   15.2160 C   0  0  0  0  0  0  0  0  0  0  0  0
   27.4640   -1.0920   14.9970 C   0  0  0  0  0  0  0  0  0  0  0  0
   23.0330    0.0450   16.9090 N   0  0  0  0  0  0  0  0  0  0  0  0
   21.7060   -0.0420   16.7890 N   0  0  0  0  0  0  0  0  0  0  0  0
   28.3600   -4.7450   14.9220 N   0  0  0  0  0  0  0  0  0  0  0  0
   23.8210    1.5010   14.7080 O   0  0  0  0  0  0  0  0  0  0  0  0
   30.4220   -3.9430   14.2880 O   0  0  0  0  0  0  0  0  0  0  0  0
   23.7500   -0.7580   10.1500 S   0  0  0  0  0  0  0  0  0  0  0  0
  1  2  1  0
  1 12  2  0
  1 16  1  0
  2 27  2  0
  3  5  1  0
  3 10  1  0
  3 17  1  0
  4  7  1  0
  4  9  2  0
  4 17  1  0
  5 18  2  0
  5 25  1  0
  6 19  2  0
  6 24  1  0
  6 28  1  0
  7  8  2  0
  8 31  1  0
  9 31  1  0
 10 11  1  0
 10 29  2  0
 11 26  1  0
 12 13  1  0
 12 26  1  0
 13 14  2  0
 14 15  1  0
 15 16  2  0
 18 19  1  0
 20 21  2  3
 20 28  1  0
 20 30  1  0
 21 22  1  0
 21 23  1  0
 22 23  1  0
 24 25  2  0
 26 27  1  0
M  END
$$$$
6 ENGINEERED: YES
     RDKit          3D

 31 35  0  0  0  0  0  0  0  0999 V2000
   22.1100    1.1250   18.6290 C   0  0  0  0  0  0  0  0  0  0  0  0
   21.1230    0.6020   17.8220 N   0  0  0  0  0  0  0  0  0  0  0  0
   25.5760    0.1650   14.0050 N   0  0  0  0  0  0  0  0  0  0  0  0
   25.1860    0.6510   11.6850 C   0  0  0  0  0  0  0  0  0  0  0  0
   26.2970   -1.1030   14.2330 C   0  0  0  0  0  0  0  0  0  0  0  0
   27.6520   -3.4870   14.6740 C   0  0  0  0  0  0  0  0  0  0  0  0
   24.9460    1.4720   10.4180 C   0  0  0  0  0  0  0  0  0  0  0  0
   24.1250    0.6970    9.5180 C   0  0  0  0  0  0  0  0  0  0  0  0
   24.5110   -0.6160   11.5710 C   0  0  0  0  0  0  0  0  0  0  0  0
   24.4180    0.4830   14.8670 C   0  0  0  0  0  0  0  0  0  0  0  0
   24.0160   -0.5260   15.9810 C   0  0  0  0  0  0  0  0  0  0  0  0
   23.3280    0.7660   18.0420 C   0  0  0  0  0  0  0  0  0  0  0  0
   24.5530    1.1700   18.6450 C   0  0  0  0  0  0  0  0  0  0  0  0
   24.5420    1.9260   19.8240 C   0  0  0  0  0  0  0  0  0  0  0  0
   23.3110    2.2780   20.4180 C   0  0  0  0  0  0  0  0  0  0  0  0
   22.1000    1.8850   19.8270 C   0  0  0  0  0  0  0  0  0  0  0  0
   25.9980    1.0790   12.9240 C   0  0  0  0  0  0  0  0  0  0  0  0
   25.8130   -2.3020   13.7010 C   0  0  0  0  0  0  0  0  0  0  0  0
   26.4870   -3.5020   13.9120 C   0  0  0  0  0  0  0  0  0  0  0  0
   29.7940   -4.8630   14.6950 C   0  0  0  0  0  0  0  0  0  0  0  0
   30.4630   -6.2160   14.9970 C   0  0  0  0  0  0  0  0  0  0  0  0
   30.0740   -6.7810   16.3630 C   0  0  0  0  0  0  0  0  0  0  0  0
   31.4840   -6.2300   16.1390 C   0  0  0  0  0  0  0  0  0  0  0  0
   28.1370   -2.2880   15.2160 C   0  0  0  0  0  0  0  0  0  0  0  0
   27.4640   -1.0920   14.9970 C   0  0  0  0  0  0  0  0  0  0  0  0
   23.0330    0.0450   16.9090 N   0  0  0  0  0  0  0  0  0  0  0  0
   21.7060   -0.0420   16.7890 N   0  0  0  0  0  0  0  0  0  0  0  0
   28.3600   -4.7450   14.9220 N   0  0  0  0  0  0  0  0  0  0  0  0
   23.8210    1.5010   14.7080 O   0  0  0  0  0  0  0  0  0  0  0  0
   30.4220   -3.9430   14.2880 O   0  0  0  0  0  0  0  0  0  0  0  0
   23.7500   -0.7580   10.1500 S   0  0  0  0  0  0  0  0  0  0  0  0
  1  2  1  0
  1 12  2  0
  1 16  1  0
  2 27  2  0
  3  5  1  0
  3 10  1  0
  3 17  1  0
  4  7  1  0
  4  9  2  0
  4 17  1  0
  5 18  2  0
  5 25  1  0
  6 19  2  0
  6 24  1  0
  6 28  1  0
  7  8  2  0
  8 31  1  0
  9 31  1  0
 10 11  1  0
 10 29  2  0
 11 26  1  0
 12 13  1  0
 12 26  1  0
 13 14  2  0
 14 15  1  0
 15 16  2  0
 18 19  1  0
 20 21  1  0
 20 28  1  0
 20 30  2  0
 21 22  1  0
 21 23  1  0
 22 23  1  0
 24 25  2  0
 26 27  1  0
M  END
$$$$
6 ENGINEERED: YES
     RDKit          3D

 31 35  0  0  0  0  0  0  0  0999 V2000
   22.1100    1.1250   18.6290 C   0  0  0  0  0  0  0  0  0  0  0  0
   21.1230    0.6020   17.8220 N   0  0  0  0  0  0  0  0  0  0  0  0
   25.5760    0.1650   14.0050 N   0  0  0  0  0  0  0  0  0  0  0  0
   25.1860    0.6510   11.6850 C   0  0  0  0  0  0  0  0  0  0  0  0
   26.2970   -1.1030   14.2330 C   0  0  0  0  0  0  0  0  0  0  0  0
   27.6520   -3.4870   14.6740 C   0  0  0  0  0  0  0  0  0  0  0  0
   24.9460    1.4720   10.4180 C   0  0  0  0  0  0  0  0  0  0  0  0
   24.1250    0.6970    9.5180 C   0  0  0  0  0  0  0  0  0  0  0  0
   24.5110   -0.6160   11.5710 C   0  0  0  0  0  0  0  0  0  0  0  0
   24.4180    0.4830   14.8670 C   0  0  0  0  0  0  0  0  0  0  0  0
   24.0160   -0.5260   15.9810 C   0  0  0  0  0  0  0  0  0  0  0  0
   23.3280    0.7660   18.0420 C   0  0  0  0  0  0  0  0  0  0  0  0
   24.5530    1.1700   18.6450 C   0  0  0  0  0  0  0  0  0  0  0  0
   24.5420    1.9260   19.8240 C   0  0  0  0  0  0  0  0  0  0  0  0
   23.3110    2.2780   20.4180 C   0  0  0  0  0  0  0  0  0  0  0  0
   22.1000    1.8850   19.8270 C   0  0  0  0  0  0  0  0  0  0  0  0
   25.9980    1.0790   12.9240 C   0  0  0  0  0  0  0  0  0  0  0  0
   25.8130   -2.3020   13.7010 C   0  0  0  0  0  0  0  0  0  0  0  0
   26.4870   -3.5020   13.9120 C   0  0  0  0  0  0  0  0  0  0  0  0
   29.7940   -4.8630   14.6950 C   0  0  0  0  0  0  0  0  0  0  0  0
   30.4630   -6.2160   14.9970 C   0  0  0  0  0  0  0  0  0  0  0  0
   30.0740   -6.7810   16.3630 C   0  0  0  0  0  0  0  0  0  0  0  0
   31.4840   -6.2300   16.1390 C   0  0  0  0  0  0  0  0  0  0  0  0
   28.1370   -2.2880   15.2160 C   0  0  0  0  0  0  0  0  0  0  0  0
   27.4640   -1.0920   14.9970 C   0  0  0  0  0  0  0  0  0  0  0  0
   23.0330    0.0450   16.9090 N   0  0  0  0  0  0  0  0  0  0  0  0
   21.7060   -0.0420   16.7890 N   0  0  0  0  0  0  0  0  0  0  0  0
   28.3600   -4.7450   14.9220 N   0  0  0  0  0  0  0  0  0  0  0  0
   23.8210    1.5010   14.7080 O   0  0  0  0  0  0  0  0  0  0  0  0
   30.4220   -3.9430   14.2880 O   0  0  0  0  0  0  0  0  0  0  0  0
   23.7500   -0.7580   10.1500 S   0  0  0  0  0  0  0  0  0  0  0  0
  1  2  1  0
  1 12  2  0
  1 16  1  0
  2 27  2  0
  3  5  1  0
  3 10  1  0
  3 17  1  0
  4  7  1  0
  4  9  2  0
  4 17  1  0
  5 18  2  0
  5 25  1  0
  6 19  2  0
  6 24  1  0
  6 28  1  0
  7  8  2  0
  8 31  1  0
  9 31  1  0
 10 11  2  3
 10 29  1  0
 11 26  1  0
 12 13  1  0
 12 26  1  0
 13 14  2  0
 14 15  1  0
 15 16  2  0
 18 19  1  0
 20 21  1  0
 20 28  1  0
 20 30  2  0
 21 22  1  0
 21 23  1  0
 22 23  1  0
 24 25  2  0
 26 27  1  0
M  END
$$$$
6 ENGINEERED: YES
     RDKit          3D

 31 35  0  0  0  0  0  0  0  0999 V2000
   22.1100    1.1250   18.6290 C   0  0  0  0  0  0  0  0  0  0  0  0
   21.1230    0.6020   17.8220 N   0  0  0  0  0  0  0  0  0  0  0  0
   25.5760    0.1650   14.0050 N   0  0  0  0  0  0  0  0  0  0  0  0
   25.1860    0.6510   11.6850 C   0  0  0  0  0  0  0  0  0  0  0  0
   26.2970   -1.1030   14.2330 C   0  0  0  0  0  0  0  0  0  0  0  0
   27.6520   -3.4870   14.6740 C   0  0  0  0  0  0  0  0  0  0  0  0
   24.9460    1.4720   10.4180 C   0  0  0  0  0  0  0  0  0  0  0  0
   24.1250    0.6970    9.5180 C   0  0  0  0  0  0  0  0  0  0  0  0
   24.5110   -0.6160   11.5710 C   0  0  0  0  0  0  0  0  0  0  0  0
   24.4180    0.4830   14.8670 C   0  0  0  0  0  0  0  0  0  0  0  0
   24.0160   -0.5260   15.9810 C   0  0  0  0  0  0  0  0  0  0  0  0
   23.3280    0.7660   18.0420 C   0  0  0  0  0  0  0  0  0  0  0  0
   24.5530    1.1700   18.6450 C   0  0  0  0  0  0  0  0  0  0  0  0
   24.5420    1.9260   19.8240 C   0  0  0  0  0  0  0  0  0  0  0  0
   23.3110    2.2780   20.4180 C   0  0  0  0  0  0  0  0  0  0  0  0
   22.1000    1.8850   19.8270 C   0  0  0  0  0  0  0  0  0  0  0  0
   25.9980    1.0790   12.9240 C   0  0  0  0  0  0  0  0  0  0  0  0
   25.8130   -2.3020   13.7010 C   0  0  0  0  0  0  0  0  0  0  0  0
   26.4870   -3.5020   13.9120 C   0  0  0  0  0  0  0  0  0  0  0  0
   29.7940   -4.8630   14.6950 C   0  0  0  0  0  0  0  0  0  0  0  0
   30.4630   -6.2160   14.9970 C   0  0  0  0  0  0  0  0  0  0  0  0
   30.0740   -6.7810   16.3630 C   0  0  0  0  0  0  0  0  0  0  0  0
   31.4840   -6.2300   16.1390 C   0  0  0  0  0  0  0  0  0  0  0  0
   28.1370   -2.2880   15.2160 C   0  0  0  0  0  0  0  0  0  0  0  0
   27.4640   -1.0920   14.9970 C   0  0  0  0  0  0  0  0  0  0  0  0
   23.0330    0.0450   16.9090 N   0  0  0  0  0  0  0  0  0  0  0  0
   21.7060   -0.0420   16.7890 N   0  0  0  0  0  0  0  0  0  0  0  0
   28.3600   -4.7450   14.9220 N   0  0  0  0  0  0  0  0  0  0  0  0
   23.8210    1.5010   14.7080 O   0  0  0  0  0  0  0  0  0  0  0  0
   30.4220   -3.9430   14.2880 O   0  0  0  0  0  0  0  0  0  0  0  0
   23.7500   -0.7580   10.1500 S   0  0  0  0  0  0  0  0  0  0  0  0
  1  2  1  0
  1 12  2  0
  1 16  1  0
  2 27  2  0
  3  5  1  0
  3 10  1  0
  3 17  1  0
  4  7  1  0
  4  9  2  0
  4 17  1  0
  5 18  2  0
  5 25  1  0
  6 19  2  0
  6 24  1  0
  6 28  1  0
  7  8  2  0
  8 31  1  0
  9 31  1  0
 10 11  2  3
 10 29  1  0
 11 26  1  0
 12 13  1  0
 12 26  1  0
 13 14  2  0
 14 15  1  0
 15 16  2  0
 18 19  1  0
 20 21  1  0
 20 28  2  3
 20 30  1  0
 21 22  1  0
 21 23  1  0
 22 23  1  0
 24 25  2  0
 26 27  1  0
M  END
$$$$
6 ENGINEERED: YES
     RDKit          3D

 31 35  0  0  0  0  0  0  0  0999 V2000
   22.1100    1.1250   18.6290 C   0  0  0  0  0  0  0  0  0  0  0  0
   21.1230    0.6020   17.8220 N   0  0  0  0  0  0  0  0  0  0  0  0
   25.5760    0.1650   14.0050 N   0  0  0  0  0  0  0  0  0  0  0  0
   25.1860    0.6510   11.6850 C   0  0  0  0  0  0  0  0  0  0  0  0
   26.2970   -1.1030   14.2330 C   0  0  0  0  0  0  0  0  0  0  0  0
   27.6520   -3.4870   14.6740 C   0  0  0  0  0  0  0  0  0  0  0  0
   24.9460    1.4720   10.4180 C   0  0  0  0  0  0  0  0  0  0  0  0
   24.1250    0.6970    9.5180 C   0  0  0  0  0  0  0  0  0  0  0  0
   24.5110   -0.6160   11.5710 C   0  0  0  0  0  0  0  0  0  0  0  0
   24.4180    0.4830   14.8670 C   0  0  0  0  0  0  0  0  0  0  0  0
   24.0160   -0.5260   15.9810 C   0  0  0  0  0  0  0  0  0  0  0  0
   23.3280    0.7660   18.0420 C   0  0  0  0  0  0  0  0  0  0  0  0
   24.5530    1.1700   18.6450 C   0  0  0  0  0  0  0  0  0  0  0  0
   24.5420    1.9260   19.8240 C   0  0  0  0  0  0  0  0  0  0  0  0
   23.3110    2.2780   20.4180 C   0  0  0  0  0  0  0  0  0  0  0  0
   22.1000    1.8850   19.8270 C   0  0  0  0  0  0  0  0  0  0  0  0
   25.9980    1.0790   12.9240 C   0  0  0  0  0  0  0  0  0  0  0  0
   25.8130   -2.3020   13.7010 C   0  0  0  0  0  0  0  0  0  0  0  0
   26.4870   -3.5020   13.9120 C   0  0  0  0  0  0  0  0  0  0  0  0
   29.7940   -4.8630   14.6950 C   0  0  0  0  0  0  0  0  0  0  0  0
   30.4630   -6.2160   14.9970 C   0  0  0  0  0  0  0  0  0  0  0  0
   30.0740   -6.7810   16.3630 C   0  0  0  0  0  0  0  0  0  0  0  0
   31.4840   -6.2300   16.1390 C   0  0  0  0  0  0  0  0  0  0  0  0
   28.1370   -2.2880   15.2160 C   0  0  0  0  0  0  0  0  0  0  0  0
   27.4640   -1.0920   14.9970 C   0  0  0  0  0  0  0  0  0  0  0  0
   23.0330    0.0450   16.9090 N   0  0  0  0  0  0  0  0  0  0  0  0
   21.7060   -0.0420   16.7890 N   0  0  0  0  0  0  0  0  0  0  0  0
   28.3600   -4.7450   14.9220 N   0  0  0  0  0  0  0  0  0  0  0  0
   23.8210    1.5010   14.7080 O   0  0  0  0  0  0  0  0  0  0  0  0
   30.4220   -3.9430   14.2880 O   0  0  0  0  0  0  0  0  0  0  0  0
   23.7500   -0.7580   10.1500 S   0  0  0  0  0  0  0  0  0  0  0  0
  1  2  1  0
  1 12  2  0
  1 16  1  0
  2 27  2  0
  3  5  1  0
  3 10  1  0
  3 17  1  0
  4  7  1  0
  4  9  2  0
  4 17  1  0
  5 18  2  0
  5 25  1  0
  6 19  2  0
  6 24  1  0
  6 28  1  0
  7  8  2  0
  8 31  1  0
  9 31  1  0
 10 11  2  3
 10 29  1  0
 11 26  1  0
 12 13  1  0
 12 26  1  0
 13 14  2  0
 14 15  1  0
 15 16  2  0
 18 19  1  0
 20 21  2  3
 20 28  1  0
 20 30  1  0
 21 22  1  0
 21 23  1  0
 22 23  1  0
 24 25  2  0
 26 27  1  0
M  END
$$$$
