Compound_12_i0


 35 39  0  0  0  0  0  0  0  0999 V2000
   24.9628    0.2679   13.7579 N   0  0  0  0  0  0  0  0  0  0  0  0
   24.1847    0.7277   14.8248 C   0  0  0  0  0  0  0  0  0  0  0  0
   23.7462    1.8818   14.8631 O   0  0  0  0  0  0  0  0  0  0  0  0
   25.8655   -0.8345   13.8406 C   0  0  0  0  0  0  0  0  0  0  0  0
   25.5253   -2.0755   13.2896 C   0  0  0  0  0  0  0  0  0  0  0  0
   26.4178   -3.1548   13.3444 C   0  0  0  0  0  0  0  0  0  0  0  0
   27.6762   -3.0138   13.9404 C   0  0  0  0  0  0  0  0  0  0  0  0
   28.0183   -1.7670   14.4789 C   0  0  0  0  0  0  0  0  0  0  0  0
   27.1277   -0.6886   14.4262 C   0  0  0  0  0  0  0  0  0  0  0  0
   28.6314   -4.1094   14.0129 C   0  0  0  0  0  0  0  0  0  0  0  0
   28.5052   -5.3610   13.4477 C   0  0  0  0  0  0  0  0  0  0  0  0
   29.6546   -6.0264   13.7818 N   0  0  0  0  0  0  0  0  0  0  0  0
   30.4230   -5.1763   14.5220 C   0  0  0  0  0  0  0  0  0  0  0  0
   29.8351   -4.0135   14.6786 N   0  0  0  0  0  0  0  0  0  0  0  0
   29.8981   -6.9733   13.5257 H   0  0  0  0  0  0  0  0  0  0  0  0
   25.0655    1.1393   12.5782 C   0  0  0  0  0  0  0  0  0  0  0  0
   27.7461    4.1194   15.3840 F   0  0  0  0  0  0  0  0  0  0  0  0
   26.9517    3.9612   14.3171 C   0  0  0  0  0  0  0  0  0  0  0  0
   26.6361    5.0615   13.5322 C   0  0  0  0  0  0  0  0  0  0  0  0
   25.8112    4.8844   12.4268 C   0  0  0  0  0  0  0  0  0  0  0  0
   25.4055    6.2361   11.4421 Cl  0  0  0  0  0  0  0  0  0  0  0  0
   25.3087    3.6201   12.1092 C   0  0  0  0  0  0  0  0  0  0  0  0
   25.6302    2.5065   12.9026 C   0  0  0  0  0  0  0  0  0  0  0  0
   26.4598    2.6934   14.0171 C   0  0  0  0  0  0  0  0  0  0  0  0
   23.8078   -0.2650   15.9246 C   0  0  0  0  0  0  0  0  0  0  0  0
   23.2596    0.4299   17.1517 C   0  0  0  0  0  0  0  0  0  0  0  0
   21.9321    0.1995   17.5147 C   0  0  0  0  0  0  0  0  0  0  0  0
   21.3226    0.7570   18.5800 N   0  0  0  0  0  0  0  0  0  0  0  0
   22.0810    1.5704   19.3450 C   0  0  0  0  0  0  0  0  0  0  0  0
   23.4239    1.8653   19.1055 C   0  0  0  0  0  0  0  0  0  0  0  0
   24.1519    2.7180   19.9552 C   0  0  0  0  0  0  0  0  0  0  0  0
   25.4925    2.9986   19.7014 C   0  0  0  0  0  0  0  0  0  0  0  0
   26.1177    2.4305   18.5986 C   0  0  0  0  0  0  0  0  0  0  0  0
   25.4030    1.5819   17.7481 C   0  0  0  0  0  0  0  0  0  0  0  0
   24.0400    1.2792   17.9774 C   0  0  0  0  0  0  0  0  0  0  0  0
 17 18  1  0
 18 19  2  0
 19 20  1  0
 20 21  1  0
 20 22  2  0
 22 23  1  0
 23 16  1  0
 16  1  1  0
  1  2  1  0
  2  3  2  0
  2 25  1  0
 25 26  1  0
 26 27  2  0
 27 28  1  0
 28 29  2  0
 29 30  1  0
 30 31  2  0
 31 32  1  0
 32 33  2  0
 33 34  1  0
 34 35  2  0
  1  4  1  0
  4  5  2  0
  5  6  1  0
  6  7  2  0
  7  8  1  0
  8  9  2  0
  7 10  1  0
 10 11  2  0
 11 12  1  0
 12 13  1  0
 13 14  2  0
 23 24  2  0
 24 18  1  0
 35 26  1  0
  9  4  1  0
 14 10  1  0
 35 30  1  0
 12 15  1  0
M  END
> <ScrubInfo>
{"isomerGroup": 4, "isomerId": 0, "confId": 0, "nr_conformers:": 1, "nr_isomers:": 2}

> <minimizedAffinity>
-9.14787

> <CNNscore>
0.7646191120

> <CNNaffinity>
7.0655899048

> <CNN_VS>
5.4024848938

> <CNNaffinity_variance>
0.4589085877

$$$$
Compound_12_i0


 35 39  0  0  0  0  0  0  0  0999 V2000
   24.9475   -2.1365   15.2172 N   0  0  0  0  0  0  0  0  0  0  0  0
   24.3836   -1.1111   15.9827 C   0  0  0  0  0  0  0  0  0  0  0  0
   23.9249   -0.0874   15.4658 O   0  0  0  0  0  0  0  0  0  0  0  0
   25.8834   -3.0900   15.7191 C   0  0  0  0  0  0  0  0  0  0  0  0
   25.4832   -4.4028   15.9946 C   0  0  0  0  0  0  0  0  0  0  0  0
   26.4030   -5.3509   16.4629 C   0  0  0  0  0  0  0  0  0  0  0  0
   27.7471   -5.0108   16.6543 C   0  0  0  0  0  0  0  0  0  0  0  0
   28.1465   -3.7001   16.3651 C   0  0  0  0  0  0  0  0  0  0  0  0
   27.2290   -2.7517   15.8987 C   0  0  0  0  0  0  0  0  0  0  0  0
   28.7324   -5.9682   17.1348 C   0  0  0  0  0  0  0  0  0  0  0  0
   29.9051   -6.3380   16.5107 C   0  0  0  0  0  0  0  0  0  0  0  0
   30.4902   -7.2484   17.3501 N   0  0  0  0  0  0  0  0  0  0  0  0
   29.6718   -7.3978   18.4313 C   0  0  0  0  0  0  0  0  0  0  0  0
   28.6050   -6.6399   18.3322 N   0  0  0  0  0  0  0  0  0  0  0  0
   31.3703   -7.7231   17.2039 H   0  0  0  0  0  0  0  0  0  0  0  0
   24.7844   -2.0518   13.7585 C   0  0  0  0  0  0  0  0  0  0  0  0
   29.1408   -0.0340   12.8152 F   0  0  0  0  0  0  0  0  0  0  0  0
   27.8077    0.0140   12.6923 C   0  0  0  0  0  0  0  0  0  0  0  0
   27.2231    1.0709   12.0087 C   0  0  0  0  0  0  0  0  0  0  0  0
   25.8384    1.1091   11.8869 C   0  0  0  0  0  0  0  0  0  0  0  0
   25.0935    2.4123   11.0455 Cl  0  0  0  0  0  0  0  0  0  0  0  0
   25.0473    0.1001   12.4418 C   0  0  0  0  0  0  0  0  0  0  0  0
   25.6396   -0.9705   13.1317 C   0  0  0  0  0  0  0  0  0  0  0  0
   27.0359   -1.0005   13.2529 C   0  0  0  0  0  0  0  0  0  0  0  0
   24.2661   -1.3180   17.4928 C   0  0  0  0  0  0  0  0  0  0  0  0
   23.4592   -0.2219   18.1538 C   0  0  0  0  0  0  0  0  0  0  0  0
   22.1101   -0.4538   18.4243 C   0  0  0  0  0  0  0  0  0  0  0  0
   21.2820    0.4376   19.0046 N   0  0  0  0  0  0  0  0  0  0  0  0
   21.8299    1.6186   19.3613 C   0  0  0  0  0  0  0  0  0  0  0  0
   23.1674    1.9668   19.1682 C   0  0  0  0  0  0  0  0  0  0  0  0
   23.6675    3.2170   19.5756 C   0  0  0  0  0  0  0  0  0  0  0  0
   25.0064    3.5458   19.3768 C   0  0  0  0  0  0  0  0  0  0  0  0
   25.8573    2.6299   18.7709 C   0  0  0  0  0  0  0  0  0  0  0  0
   25.3701    1.3849   18.3625 C   0  0  0  0  0  0  0  0  0  0  0  0
   24.0152    1.0221   18.5481 C   0  0  0  0  0  0  0  0  0  0  0  0
 17 18  1  0
 18 19  2  0
 19 20  1  0
 20 21  1  0
 20 22  2  0
 22 23  1  0
 23 16  1  0
 16  1  1  0
  1  2  1  0
  2  3  2  0
  2 25  1  0
 25 26  1  0
 26 27  2  0
 27 28  1  0
 28 29  2  0
 29 30  1  0
 30 31  2  0
 31 32  1  0
 32 33  2  0
 33 34  1  0
 34 35  2  0
  1  4  1  0
  4  5  2  0
  5  6  1  0
  6  7  2  0
  7  8  1  0
  8  9  2  0
  7 10  1  0
 10 11  2  0
 11 12  1  0
 12 13  1  0
 13 14  2  0
 23 24  2  0
 24 18  1  0
 35 26  1  0
  9  4  1  0
 14 10  1  0
 35 30  1  0
 12 15  1  0
M  END
> <ScrubInfo>
{"isomerGroup": 4, "isomerId": 0, "confId": 0, "nr_conformers:": 1, "nr_isomers:": 2}

> <minimizedAffinity>
-8.05619

> <CNNscore>
0.7357729673

> <CNNaffinity>
6.9553370476

> <CNN_VS>
5.1175489426

> <CNNaffinity_variance>
0.0983864591

$$$$
Compound_12_i0


 35 39  0  0  0  0  0  0  0  0999 V2000
   24.9845    0.3591   13.6022 N   0  0  0  0  0  0  0  0  0  0  0  0
   24.2112    0.8043   14.6787 C   0  0  0  0  0  0  0  0  0  0  0  0
   23.7634    1.9543   14.7293 O   0  0  0  0  0  0  0  0  0  0  0  0
   25.8970   -0.7362   13.6691 C   0  0  0  0  0  0  0  0  0  0  0  0
   27.1615   -0.5746   14.2474 C   0  0  0  0  0  0  0  0  0  0  0  0
   28.0523   -1.6526   14.3396 C   0  0  0  0  0  0  0  0  0  0  0  0
   27.6938   -2.9202   13.8671 C   0  0  0  0  0  0  0  0  0  0  0  0
   26.4230   -3.0813   13.3011 C   0  0  0  0  0  0  0  0  0  0  0  0
   25.5327   -2.0055   13.2069 C   0  0  0  0  0  0  0  0  0  0  0  0
   28.5894   -4.0646   13.9490 C   0  0  0  0  0  0  0  0  0  0  0  0
   28.3242   -5.3578   13.5504 C   0  0  0  0  0  0  0  0  0  0  0  0
   29.4688   -6.0607   13.8176 N   0  0  0  0  0  0  0  0  0  0  0  0
   30.3703   -5.1908   14.3575 C   0  0  0  0  0  0  0  0  0  0  0  0
   29.8714   -3.9804   14.4494 N   0  0  0  0  0  0  0  0  0  0  0  0
   29.6257   -7.0439   13.6443 H   0  0  0  0  0  0  0  0  0  0  0  0
   25.0700    1.2401   12.4282 C   0  0  0  0  0  0  0  0  0  0  0  0
   25.2743    6.0499   11.5540 F   0  0  0  0  0  0  0  0  0  0  0  0
   25.6514    5.0073   12.3059 C   0  0  0  0  0  0  0  0  0  0  0  0
   26.5053    5.2143   13.3803 C   0  0  0  0  0  0  0  0  0  0  0  0
   26.8889    4.1243   14.1539 C   0  0  0  0  0  0  0  0  0  0  0  0
   27.9491    4.3589   15.4889 Cl  0  0  0  0  0  0  0  0  0  0  0  0
   26.4222    2.8414   13.8568 C   0  0  0  0  0  0  0  0  0  0  0  0
   25.5563    2.6328   12.7706 C   0  0  0  0  0  0  0  0  0  0  0  0
   25.1765    3.7361   11.9936 C   0  0  0  0  0  0  0  0  0  0  0  0
   23.8518   -0.1998   15.7741 C   0  0  0  0  0  0  0  0  0  0  0  0
   23.3132    0.4817   17.0129 C   0  0  0  0  0  0  0  0  0  0  0  0
   21.9808    0.2689   17.3684 C   0  0  0  0  0  0  0  0  0  0  0  0
   21.3787    0.8172   18.4427 N   0  0  0  0  0  0  0  0  0  0  0  0
   22.1499    1.6018   19.2248 C   0  0  0  0  0  0  0  0  0  0  0  0
   23.4986    1.8765   18.9940 C   0  0  0  0  0  0  0  0  0  0  0  0
   24.2398    2.6994   19.8615 C   0  0  0  0  0  0  0  0  0  0  0  0
   25.5860    2.9601   19.6162 C   0  0  0  0  0  0  0  0  0  0  0  0
   26.2037    2.4016   18.5042 C   0  0  0  0  0  0  0  0  0  0  0  0
   25.4758    1.5826   17.6361 C   0  0  0  0  0  0  0  0  0  0  0  0
   24.1069    1.3007   17.8564 C   0  0  0  0  0  0  0  0  0  0  0  0
 17 18  1  0
 18 19  2  0
 19 20  1  0
 20 21  1  0
 20 22  2  0
 22 23  1  0
 23 16  1  0
 16  1  1  0
  1  2  1  0
  2  3  2  0
  2 25  1  0
 25 26  1  0
 26 27  2  0
 27 28  1  0
 28 29  2  0
 29 30  1  0
 30 31  2  0
 31 32  1  0
 32 33  2  0
 33 34  1  0
 34 35  2  0
  1  4  1  0
  4  5  2  0
  5  6  1  0
  6  7  2  0
  7  8  1  0
  8  9  2  0
  7 10  1  0
 10 11  2  0
 11 12  1  0
 12 13  1  0
 13 14  2  0
 23 24  2  0
 24 18  1  0
 35 26  1  0
  9  4  1  0
 14 10  1  0
 35 30  1  0
 12 15  1  0
M  END
> <ScrubInfo>
{"isomerGroup": 4, "isomerId": 0, "confId": 0, "nr_conformers:": 1, "nr_isomers:": 2}

> <minimizedAffinity>
-9.34157

> <CNNscore>
0.6155278683

> <CNNaffinity>
6.9177951813

> <CNN_VS>
4.2580957413

> <CNNaffinity_variance>
0.5976043344

$$$$
Compound_12_i0


 35 39  0  0  0  0  0  0  0  0999 V2000
   24.3191   -1.1875   15.4899 N   0  0  0  0  0  0  0  0  0  0  0  0
   23.8021   -0.2081   16.3435 C   0  0  0  0  0  0  0  0  0  0  0  0
   23.1146    0.7277   15.9225 O   0  0  0  0  0  0  0  0  0  0  0  0
   25.4564   -1.9952   15.7919 C   0  0  0  0  0  0  0  0  0  0  0  0
   25.3145   -3.3706   16.0103 C   0  0  0  0  0  0  0  0  0  0  0  0
   26.4306   -4.1738   16.2817 C   0  0  0  0  0  0  0  0  0  0  0  0
   27.7158   -3.6217   16.3281 C   0  0  0  0  0  0  0  0  0  0  0  0
   27.8554   -2.2476   16.0961 C   0  0  0  0  0  0  0  0  0  0  0  0
   26.7418   -1.4439   15.8264 C   0  0  0  0  0  0  0  0  0  0  0  0
   28.8990   -4.4235   16.6025 C   0  0  0  0  0  0  0  0  0  0  0  0
   28.9341   -5.7351   17.0269 C   0  0  0  0  0  0  0  0  0  0  0  0
   30.2638   -6.0455   17.1331 N   0  0  0  0  0  0  0  0  0  0  0  0
   30.9756   -4.9372   16.7780 C   0  0  0  0  0  0  0  0  0  0  0  0
   30.1828   -3.9434   16.4525 N   0  0  0  0  0  0  0  0  0  0  0  0
   30.6538   -6.9335   17.4173 H   0  0  0  0  0  0  0  0  0  0  0  0
   23.8403   -1.1863   14.0998 C   0  0  0  0  0  0  0  0  0  0  0  0
   24.9572    0.7868    9.7640 F   0  0  0  0  0  0  0  0  0  0  0  0
   25.0232    0.8507   11.1004 C   0  0  0  0  0  0  0  0  0  0  0  0
   25.6920    1.9083   11.7008 C   0  0  0  0  0  0  0  0  0  0  0  0
   25.7529    1.9640   13.0889 C   0  0  0  0  0  0  0  0  0  0  0  0
   26.5796    3.2655   13.8531 Cl  0  0  0  0  0  0  0  0  0  0  0  0
   25.1500    0.9734   13.8680 C   0  0  0  0  0  0  0  0  0  0  0  0
   24.4714   -0.0956   13.2599 C   0  0  0  0  0  0  0  0  0  0  0  0
   24.4169   -0.1466   11.8600 C   0  0  0  0  0  0  0  0  0  0  0  0
   24.0361   -0.3630   17.8462 C   0  0  0  0  0  0  0  0  0  0  0  0
   24.0599    0.9726   18.5567 C   0  0  0  0  0  0  0  0  0  0  0  0
   23.0241    1.2800   19.4397 C   0  0  0  0  0  0  0  0  0  0  0  0
   22.9252    2.4329   20.1312 N   0  0  0  0  0  0  0  0  0  0  0  0
   23.9252    3.3226   19.9567 C   0  0  0  0  0  0  0  0  0  0  0  0
   25.0271    3.1289   19.1225 C   0  0  0  0  0  0  0  0  0  0  0  0
   26.0356    4.1019   18.9993 C   0  0  0  0  0  0  0  0  0  0  0  0
   27.1296    3.8895   18.1636 C   0  0  0  0  0  0  0  0  0  0  0  0
   27.2267    2.7047   17.4447 C   0  0  0  0  0  0  0  0  0  0  0  0
   26.2297    1.7316   17.5601 C   0  0  0  0  0  0  0  0  0  0  0  0
   25.1054    1.9183   18.3985 C   0  0  0  0  0  0  0  0  0  0  0  0
 17 18  1  0
 18 19  2  0
 19 20  1  0
 20 21  1  0
 20 22  2  0
 22 23  1  0
 23 16  1  0
 16  1  1  0
  1  2  1  0
  2  3  2  0
  2 25  1  0
 25 26  1  0
 26 27  2  0
 27 28  1  0
 28 29  2  0
 29 30  1  0
 30 31  2  0
 31 32  1  0
 32 33  2  0
 33 34  1  0
 34 35  2  0
  1  4  1  0
  4  5  2  0
  5  6  1  0
  6  7  2  0
  7  8  1  0
  8  9  2  0
  7 10  1  0
 10 11  2  0
 11 12  1  0
 12 13  1  0
 13 14  2  0
 23 24  2  0
 24 18  1  0
 35 26  1  0
  9  4  1  0
 14 10  1  0
 35 30  1  0
 12 15  1  0
M  END
> <ScrubInfo>
{"isomerGroup": 4, "isomerId": 0, "confId": 0, "nr_conformers:": 1, "nr_isomers:": 2}

> <minimizedAffinity>
-7.62329

> <CNNscore>
0.6130691767

> <CNNaffinity>
6.6598758698

> <CNN_VS>
4.0829644203

> <CNNaffinity_variance>
0.0907876417

$$$$
Compound_12_i0


 35 39  0  0  0  0  0  0  0  0999 V2000
   27.3414   -0.9084   14.7360 N   0  0  0  0  0  0  0  0  0  0  0  0
   27.6457   -2.2557   14.5187 C   0  0  0  0  0  0  0  0  0  0  0  0
   28.2624   -2.6322   13.5169 O   0  0  0  0  0  0  0  0  0  0  0  0
   26.2789   -0.4511   15.5721 C   0  0  0  0  0  0  0  0  0  0  0  0
   26.5470    0.3436   16.6928 C   0  0  0  0  0  0  0  0  0  0  0  0
   25.5062    0.8175   17.5030 C   0  0  0  0  0  0  0  0  0  0  0  0
   24.1723    0.5179   17.2033 C   0  0  0  0  0  0  0  0  0  0  0  0
   23.9071   -0.2665   16.0739 C   0  0  0  0  0  0  0  0  0  0  0  0
   24.9454   -0.7417   15.2645 C   0  0  0  0  0  0  0  0  0  0  0  0
   23.0645    0.9949   18.0177 C   0  0  0  0  0  0  0  0  0  0  0  0
   23.1362    1.5340   19.2850 C   0  0  0  0  0  0  0  0  0  0  0  0
   21.8442    1.8377   19.6227 N   0  0  0  0  0  0  0  0  0  0  0  0
   21.0489    1.4810   18.5733 C   0  0  0  0  0  0  0  0  0  0  0  0
   21.7536    0.9708   17.5907 N   0  0  0  0  0  0  0  0  0  0  0  0
   21.5304    2.2551   20.4880 H   0  0  0  0  0  0  0  0  0  0  0  0
   27.9657    0.0737   13.8374 C   0  0  0  0  0  0  0  0  0  0  0  0
   25.5380    4.2727   13.1939 F   0  0  0  0  0  0  0  0  0  0  0  0
   25.7558    3.0076   12.8111 C   0  0  0  0  0  0  0  0  0  0  0  0
   25.0311    2.4811   11.7510 C   0  0  0  0  0  0  0  0  0  0  0  0
   25.2668    1.1669   11.3624 C   0  0  0  0  0  0  0  0  0  0  0  0
   24.3770    0.4941   10.0521 Cl  0  0  0  0  0  0  0  0  0  0  0  0
   26.2183    0.3884   12.0260 C   0  0  0  0  0  0  0  0  0  0  0  0
   26.9531    0.9224   13.0974 C   0  0  0  0  0  0  0  0  0  0  0  0
   26.7077    2.2471   13.4854 C   0  0  0  0  0  0  0  0  0  0  0  0
   27.2687   -3.2655   15.6028 C   0  0  0  0  0  0  0  0  0  0  0  0
   28.4561   -4.0932   16.0439 C   0  0  0  0  0  0  0  0  0  0  0  0
   28.6319   -5.3611   15.4884 C   0  0  0  0  0  0  0  0  0  0  0  0
   29.6427   -6.1979   15.7968 N   0  0  0  0  0  0  0  0  0  0  0  0
   30.5467   -5.7405   16.6889 C   0  0  0  0  0  0  0  0  0  0  0  0
   30.4990   -4.4865   17.2994 C   0  0  0  0  0  0  0  0  0  0  0  0
   31.4853   -4.0771   18.2152 C   0  0  0  0  0  0  0  0  0  0  0  0
   31.4224   -2.8203   18.8127 C   0  0  0  0  0  0  0  0  0  0  0  0
   30.3757   -1.9617   18.5009 C   0  0  0  0  0  0  0  0  0  0  0  0
   29.3906   -2.3592   17.5921 C   0  0  0  0  0  0  0  0  0  0  0  0
   29.4250   -3.6297   16.9704 C   0  0  0  0  0  0  0  0  0  0  0  0
 17 18  1  0
 18 19  2  0
 19 20  1  0
 20 21  1  0
 20 22  2  0
 22 23  1  0
 23 16  1  0
 16  1  1  0
  1  2  1  0
  2  3  2  0
  2 25  1  0
 25 26  1  0
 26 27  2  0
 27 28  1  0
 28 29  2  0
 29 30  1  0
 30 31  2  0
 31 32  1  0
 32 33  2  0
 33 34  1  0
 34 35  2  0
  1  4  1  0
  4  5  2  0
  5  6  1  0
  6  7  2  0
  7  8  1  0
  8  9  2  0
  7 10  1  0
 10 11  2  0
 11 12  1  0
 12 13  1  0
 13 14  2  0
 23 24  2  0
 24 18  1  0
 35 26  1  0
  9  4  1  0
 14 10  1  0
 35 30  1  0
 12 15  1  0
M  END
> <ScrubInfo>
{"isomerGroup": 4, "isomerId": 0, "confId": 0, "nr_conformers:": 1, "nr_isomers:": 2}

> <minimizedAffinity>
-8.09464

> <CNNscore>
0.5272922516

> <CNNaffinity>
6.9993877411

> <CNN_VS>
3.6907229424

> <CNNaffinity_variance>
0.0596820302

$$$$
Compound_12_i0


 35 39  0  0  0  0  0  0  0  0999 V2000
   24.7089   -0.0543   15.2831 N   0  0  0  0  0  0  0  0  0  0  0  0
   24.7464    1.2243   14.7183 C   0  0  0  0  0  0  0  0  0  0  0  0
   23.7352    1.9277   14.6277 O   0  0  0  0  0  0  0  0  0  0  0  0
   25.6677   -1.0773   15.0160 C   0  0  0  0  0  0  0  0  0  0  0  0
   26.6775   -1.3652   15.9415 C   0  0  0  0  0  0  0  0  0  0  0  0
   27.6063   -2.3860   15.6970 C   0  0  0  0  0  0  0  0  0  0  0  0
   27.5384   -3.1506   14.5268 C   0  0  0  0  0  0  0  0  0  0  0  0
   26.5187   -2.8685   13.6092 C   0  0  0  0  0  0  0  0  0  0  0  0
   25.5912   -1.8486   13.8512 C   0  0  0  0  0  0  0  0  0  0  0  0
   28.4815   -4.2212   14.2395 C   0  0  0  0  0  0  0  0  0  0  0  0
   28.2148   -5.4154   13.6036 C   0  0  0  0  0  0  0  0  0  0  0  0
   29.4127   -6.0779   13.5606 N   0  0  0  0  0  0  0  0  0  0  0  0
   30.3457   -5.2821   14.1584 C   0  0  0  0  0  0  0  0  0  0  0  0
   29.8167   -4.1565   14.5775 N   0  0  0  0  0  0  0  0  0  0  0  0
   29.5829   -6.9885   13.1566 H   0  0  0  0  0  0  0  0  0  0  0  0
   23.4662   -0.4521   15.9606 C   0  0  0  0  0  0  0  0  0  0  0  0
   20.4221    1.8655   19.0105 F   0  0  0  0  0  0  0  0  0  0  0  0
   21.6733    1.4975   18.7046 C   0  0  0  0  0  0  0  0  0  0  0  0
   22.7179    1.8728   19.5377 C   0  0  0  0  0  0  0  0  0  0  0  0
   24.0121    1.4839   19.2101 C   0  0  0  0  0  0  0  0  0  0  0  0
   25.3219    1.9411   20.2283 Cl  0  0  0  0  0  0  0  0  0  0  0  0
   24.2585    0.7266   18.0622 C   0  0  0  0  0  0  0  0  0  0  0  0
   23.2007    0.3452   17.2205 C   0  0  0  0  0  0  0  0  0  0  0  0
   21.8990    0.7435   17.5558 C   0  0  0  0  0  0  0  0  0  0  0  0
   26.1014    1.7818   14.2820 C   0  0  0  0  0  0  0  0  0  0  0  0
   25.9585    3.0635   13.4905 C   0  0  0  0  0  0  0  0  0  0  0  0
   25.4259    2.9991   12.2024 C   0  0  0  0  0  0  0  0  0  0  0  0
   25.2491    4.0630   11.3937 N   0  0  0  0  0  0  0  0  0  0  0  0
   25.5968    5.2645   11.9015 C   0  0  0  0  0  0  0  0  0  0  0  0
   26.1182    5.4682   13.1799 C   0  0  0  0  0  0  0  0  0  0  0  0
   26.4494    6.7550   13.6419 C   0  0  0  0  0  0  0  0  0  0  0  0
   26.9664    6.9390   14.9223 C   0  0  0  0  0  0  0  0  0  0  0  0
   27.1563    5.8411   15.7521 C   0  0  0  0  0  0  0  0  0  0  0  0
   26.8302    4.5583   15.3023 C   0  0  0  0  0  0  0  0  0  0  0  0
   26.3057    4.3382   14.0068 C   0  0  0  0  0  0  0  0  0  0  0  0
 17 18  1  0
 18 19  2  0
 19 20  1  0
 20 21  1  0
 20 22  2  0
 22 23  1  0
 23 16  1  0
 16  1  1  0
  1  2  1  0
  2  3  2  0
  2 25  1  0
 25 26  1  0
 26 27  2  0
 27 28  1  0
 28 29  2  0
 29 30  1  0
 30 31  2  0
 31 32  1  0
 32 33  2  0
 33 34  1  0
 34 35  2  0
  1  4  1  0
  4  5  2  0
  5  6  1  0
  6  7  2  0
  7  8  1  0
  8  9  2  0
  7 10  1  0
 10 11  2  0
 11 12  1  0
 12 13  1  0
 13 14  2  0
 23 24  2  0
 24 18  1  0
 35 26  1  0
  9  4  1  0
 14 10  1  0
 35 30  1  0
 12 15  1  0
M  END
> <ScrubInfo>
{"isomerGroup": 4, "isomerId": 0, "confId": 0, "nr_conformers:": 1, "nr_isomers:": 2}

> <minimizedAffinity>
-9.34666

> <CNNscore>
0.4548940659

> <CNNaffinity>
6.8110480309

> <CNN_VS>
3.0983052254

> <CNNaffinity_variance>
0.4655473232

$$$$
Compound_12_i0


 35 39  0  0  0  0  0  0  0  0999 V2000
   26.2610   -1.6380   15.7081 N   0  0  0  0  0  0  0  0  0  0  0  0
   25.1157   -0.8413   15.6149 C   0  0  0  0  0  0  0  0  0  0  0  0
   23.9973   -1.3266   15.4168 O   0  0  0  0  0  0  0  0  0  0  0  0
   27.5871   -1.1668   15.4709 C   0  0  0  0  0  0  0  0  0  0  0  0
   28.4433   -0.8826   16.5413 C   0  0  0  0  0  0  0  0  0  0  0  0
   29.7553   -0.4444   16.3149 C   0  0  0  0  0  0  0  0  0  0  0  0
   30.2448   -0.2926   15.0126 C   0  0  0  0  0  0  0  0  0  0  0  0
   29.3896   -0.5904   13.9444 C   0  0  0  0  0  0  0  0  0  0  0  0
   28.0788   -1.0268   14.1686 C   0  0  0  0  0  0  0  0  0  0  0  0
   31.6018    0.1558   14.7375 C   0  0  0  0  0  0  0  0  0  0  0  0
   32.6331    0.2886   15.6433 C   0  0  0  0  0  0  0  0  0  0  0  0
   33.7039    0.7273   14.9108 N   0  0  0  0  0  0  0  0  0  0  0  0
   33.2965    0.8438   13.6141 C   0  0  0  0  0  0  0  0  0  0  0  0
   32.0357    0.5065   13.4765 N   0  0  0  0  0  0  0  0  0  0  0  0
   34.6313    0.9257   15.2599 H   0  0  0  0  0  0  0  0  0  0  0  0
   26.0621   -3.0932   15.7750 C   0  0  0  0  0  0  0  0  0  0  0  0
   28.6383   -5.4745   12.3644 F   0  0  0  0  0  0  0  0  0  0  0  0
   28.5296   -5.0608   13.6339 C   0  0  0  0  0  0  0  0  0  0  0  0
   29.5307   -5.3756   14.5421 C   0  0  0  0  0  0  0  0  0  0  0  0
   29.4070   -4.9397   15.8568 C   0  0  0  0  0  0  0  0  0  0  0  0
   30.6359   -5.3215   16.9994 Cl  0  0  0  0  0  0  0  0  0  0  0  0
   28.2947   -4.1958   16.2581 C   0  0  0  0  0  0  0  0  0  0  0  0
   27.2828   -3.8756   15.3380 C   0  0  0  0  0  0  0  0  0  0  0  0
   27.4131   -4.3212   14.0151 C   0  0  0  0  0  0  0  0  0  0  0  0
   25.2607    0.6624   15.8497 C   0  0  0  0  0  0  0  0  0  0  0  0
   25.3819    1.4296   14.5513 C   0  0  0  0  0  0  0  0  0  0  0  0
   25.8933    2.7274   14.5857 C   0  0  0  0  0  0  0  0  0  0  0  0
   26.0495    3.5170   13.5043 N   0  0  0  0  0  0  0  0  0  0  0  0
   25.7025    2.9790   12.3159 C   0  0  0  0  0  0  0  0  0  0  0  0
   25.2012    1.6883   12.1419 C   0  0  0  0  0  0  0  0  0  0  0  0
   24.8692    1.1945   10.8671 C   0  0  0  0  0  0  0  0  0  0  0  0
   24.3725   -0.0977   10.7128 C   0  0  0  0  0  0  0  0  0  0  0  0
   24.2038   -0.9080   11.8287 C   0  0  0  0  0  0  0  0  0  0  0  0
   24.5307   -0.4266   13.0998 C   0  0  0  0  0  0  0  0  0  0  0  0
   25.0349    0.8817   13.2897 C   0  0  0  0  0  0  0  0  0  0  0  0
 17 18  1  0
 18 19  2  0
 19 20  1  0
 20 21  1  0
 20 22  2  0
 22 23  1  0
 23 16  1  0
 16  1  1  0
  1  2  1  0
  2  3  2  0
  2 25  1  0
 25 26  1  0
 26 27  2  0
 27 28  1  0
 28 29  2  0
 29 30  1  0
 30 31  2  0
 31 32  1  0
 32 33  2  0
 33 34  1  0
 34 35  2  0
  1  4  1  0
  4  5  2  0
  5  6  1  0
  6  7  2  0
  7  8  1  0
  8  9  2  0
  7 10  1  0
 10 11  2  0
 11 12  1  0
 12 13  1  0
 13 14  2  0
 23 24  2  0
 24 18  1  0
 35 26  1  0
  9  4  1  0
 14 10  1  0
 35 30  1  0
 12 15  1  0
M  END
> <ScrubInfo>
{"isomerGroup": 4, "isomerId": 0, "confId": 0, "nr_conformers:": 1, "nr_isomers:": 2}

> <minimizedAffinity>
-7.38937

> <CNNscore>
0.3730802834

> <CNNaffinity>
6.3668117523

> <CNN_VS>
2.3753318787

> <CNNaffinity_variance>
0.2617956698

$$$$
Compound_12_i0


 35 39  0  0  0  0  0  0  0  0999 V2000
   24.6822    0.0707   15.2015 N   0  0  0  0  0  0  0  0  0  0  0  0
   24.7923    1.3683   14.6924 C   0  0  0  0  0  0  0  0  0  0  0  0
   23.8101    2.1075   14.5712 O   0  0  0  0  0  0  0  0  0  0  0  0
   25.6237   -0.9719   14.9497 C   0  0  0  0  0  0  0  0  0  0  0  0
   26.4186   -1.4780   15.9849 C   0  0  0  0  0  0  0  0  0  0  0  0
   27.3265   -2.5196   15.7499 C   0  0  0  0  0  0  0  0  0  0  0  0
   27.4509   -3.0874   14.4768 C   0  0  0  0  0  0  0  0  0  0  0  0
   26.6446   -2.5874   13.4466 C   0  0  0  0  0  0  0  0  0  0  0  0
   25.7385   -1.5464   13.6793 C   0  0  0  0  0  0  0  0  0  0  0  0
   28.3788   -4.1726   14.1947 C   0  0  0  0  0  0  0  0  0  0  0  0
   28.0649   -5.4418   13.7563 C   0  0  0  0  0  0  0  0  0  0  0  0
   29.2658   -6.0875   13.6275 N   0  0  0  0  0  0  0  0  0  0  0  0
   30.2467   -5.2089   13.9840 C   0  0  0  0  0  0  0  0  0  0  0  0
   29.7452   -4.0466   14.3303 N   0  0  0  0  0  0  0  0  0  0  0  0
   29.4074   -7.0397   13.3199 H   0  0  0  0  0  0  0  0  0  0  0  0
   23.3896   -0.3122   15.7881 C   0  0  0  0  0  0  0  0  0  0  0  0
   20.2708    1.7653   18.9341 F   0  0  0  0  0  0  0  0  0  0  0  0
   21.5322    1.4412   18.6202 C   0  0  0  0  0  0  0  0  0  0  0  0
   22.5614    1.7901   19.4834 C   0  0  0  0  0  0  0  0  0  0  0  0
   23.8664    1.4472   19.1470 C   0  0  0  0  0  0  0  0  0  0  0  0
   25.1573    1.8729   20.2022 Cl  0  0  0  0  0  0  0  0  0  0  0  0
   24.1385    0.7615   17.9606 C   0  0  0  0  0  0  0  0  0  0  0  0
   23.0963    0.4066   17.0883 C   0  0  0  0  0  0  0  0  0  0  0  0
   21.7837    0.7584   17.4328 C   0  0  0  0  0  0  0  0  0  0  0  0
   26.1872    1.8978   14.3595 C   0  0  0  0  0  0  0  0  0  0  0  0
   26.9797    2.2294   15.6050 C   0  0  0  0  0  0  0  0  0  0  0  0
   28.1915    1.5726   15.8222 C   0  0  0  0  0  0  0  0  0  0  0  0
   28.9896    1.7731   16.8899 N   0  0  0  0  0  0  0  0  0  0  0  0
   28.5747    2.6979   17.7814 C   0  0  0  0  0  0  0  0  0  0  0  0
   27.3974    3.4390   17.6707 C   0  0  0  0  0  0  0  0  0  0  0  0
   27.0361    4.3934   18.6390 C   0  0  0  0  0  0  0  0  0  0  0  0
   25.8581    5.1257   18.5100 C   0  0  0  0  0  0  0  0  0  0  0  0
   25.0318    4.9124   17.4138 C   0  0  0  0  0  0  0  0  0  0  0  0
   25.3820    3.9663   16.4461 C   0  0  0  0  0  0  0  0  0  0  0  0
   26.5701    3.2051   16.5497 C   0  0  0  0  0  0  0  0  0  0  0  0
 17 18  1  0
 18 19  2  0
 19 20  1  0
 20 21  1  0
 20 22  2  0
 22 23  1  0
 23 16  1  0
 16  1  1  0
  1  2  1  0
  2  3  2  0
  2 25  1  0
 25 26  1  0
 26 27  2  0
 27 28  1  0
 28 29  2  0
 29 30  1  0
 30 31  2  0
 31 32  1  0
 32 33  2  0
 33 34  1  0
 34 35  2  0
  1  4  1  0
  4  5  2  0
  5  6  1  0
  6  7  2  0
  7  8  1  0
  8  9  2  0
  7 10  1  0
 10 11  2  0
 11 12  1  0
 12 13  1  0
 13 14  2  0
 23 24  2  0
 24 18  1  0
 35 26  1  0
  9  4  1  0
 14 10  1  0
 35 30  1  0
 12 15  1  0
M  END
> <ScrubInfo>
{"isomerGroup": 4, "isomerId": 0, "confId": 0, "nr_conformers:": 1, "nr_isomers:": 2}

> <minimizedAffinity>
-8.45814

> <CNNscore>
0.3640686274

> <CNNaffinity>
6.5355949402

> <CNN_VS>
2.3794050217

> <CNNaffinity_variance>
0.3523491919

$$$$
Compound_12_i0


 35 39  0  0  0  0  0  0  0  0999 V2000
   27.2629   -0.9152   14.7777 N   0  0  0  0  0  0  0  0  0  0  0  0
   27.5318   -2.2749   14.5938 C   0  0  0  0  0  0  0  0  0  0  0  0
   28.1491   -2.6907   13.6081 O   0  0  0  0  0  0  0  0  0  0  0  0
   26.2041   -0.4099   15.5906 C   0  0  0  0  0  0  0  0  0  0  0  0
   24.8717   -0.7262   15.3009 C   0  0  0  0  0  0  0  0  0  0  0  0
   23.8292   -0.2547   16.1104 C   0  0  0  0  0  0  0  0  0  0  0  0
   24.0966    0.5335   17.2355 C   0  0  0  0  0  0  0  0  0  0  0  0
   25.4317    0.8369   17.5297 C   0  0  0  0  0  0  0  0  0  0  0  0
   26.4739    0.3680   16.7217 C   0  0  0  0  0  0  0  0  0  0  0  0
   23.0418    1.0380   18.1023 C   0  0  0  0  0  0  0  0  0  0  0  0
   23.1956    1.7964   19.2437 C   0  0  0  0  0  0  0  0  0  0  0  0
   21.9246    2.0294   19.6972 N   0  0  0  0  0  0  0  0  0  0  0  0
   21.0609    1.4185   18.8359 C   0  0  0  0  0  0  0  0  0  0  0  0
   21.7025    0.8131   17.8642 N   0  0  0  0  0  0  0  0  0  0  0  0
   21.6659    2.5607   20.5171 H   0  0  0  0  0  0  0  0  0  0  0  0
   27.9246    0.0288   13.8652 C   0  0  0  0  0  0  0  0  0  0  0  0
   25.6174    4.2957   13.2243 F   0  0  0  0  0  0  0  0  0  0  0  0
   25.8080    3.0287   12.8331 C   0  0  0  0  0  0  0  0  0  0  0  0
   25.0860    2.5308   11.7574 C   0  0  0  0  0  0  0  0  0  0  0  0
   25.2933    1.2144   11.3602 C   0  0  0  0  0  0  0  0  0  0  0  0
   24.4064    0.5768   10.0305 Cl  0  0  0  0  0  0  0  0  0  0  0  0
   26.2139    0.4054   12.0308 C   0  0  0  0  0  0  0  0  0  0  0  0
   26.9459    0.9104   13.1180 C   0  0  0  0  0  0  0  0  0  0  0  0
   26.7293    2.2375   13.5146 C   0  0  0  0  0  0  0  0  0  0  0  0
   27.1144   -3.2493   15.6954 C   0  0  0  0  0  0  0  0  0  0  0  0
   28.2296   -4.2049   16.0592 C   0  0  0  0  0  0  0  0  0  0  0  0
   29.4705   -4.0530   15.4393 C   0  0  0  0  0  0  0  0  0  0  0  0
   30.5424   -4.8368   15.6710 N   0  0  0  0  0  0  0  0  0  0  0  0
   30.3824   -5.8124   16.5901 C   0  0  0  0  0  0  0  0  0  0  0  0
   29.2035   -6.0560   17.2961 C   0  0  0  0  0  0  0  0  0  0  0  0
   29.1165   -7.0891   18.2470 C   0  0  0  0  0  0  0  0  0  0  0  0
   27.9318   -7.3154   18.9439 C   0  0  0  0  0  0  0  0  0  0  0  0
   26.8249   -6.5126   18.6985 C   0  0  0  0  0  0  0  0  0  0  0  0
   26.9012   -5.4834   17.7555 C   0  0  0  0  0  0  0  0  0  0  0  0
   28.0889   -5.2298   17.0298 C   0  0  0  0  0  0  0  0  0  0  0  0
 17 18  1  0
 18 19  2  0
 19 20  1  0
 20 21  1  0
 20 22  2  0
 22 23  1  0
 23 16  1  0
 16  1  1  0
  1  2  1  0
  2  3  2  0
  2 25  1  0
 25 26  1  0
 26 27  2  0
 27 28  1  0
 28 29  2  0
 29 30  1  0
 30 31  2  0
 31 32  1  0
 32 33  2  0
 33 34  1  0
 34 35  2  0
  1  4  1  0
  4  5  2  0
  5  6  1  0
  6  7  2  0
  7  8  1  0
  8  9  2  0
  7 10  1  0
 10 11  2  0
 11 12  1  0
 12 13  1  0
 13 14  2  0
 23 24  2  0
 24 18  1  0
 35 26  1  0
  9  4  1  0
 14 10  1  0
 35 30  1  0
 12 15  1  0
M  END
> <ScrubInfo>
{"isomerGroup": 4, "isomerId": 0, "confId": 0, "nr_conformers:": 1, "nr_isomers:": 2}

> <minimizedAffinity>
-8.93830

> <CNNscore>
0.3511778116

> <CNNaffinity>
6.7823748589

> <CNN_VS>
2.3818194866

> <CNNaffinity_variance>
0.1557125449

$$$$
Compound_63


 44 48  0  0  0  0  0  0  0  0999 V2000
   26.5647   -0.2117   14.8798 N   0  0  0  0  0  0  0  0  0  0  0  0
   27.2087    1.0294   15.0587 C   0  0  0  0  0  0  0  0  0  0  0  0
   28.4340    1.1236   15.2065 O   0  0  0  0  0  0  0  0  0  0  0  0
   28.8911   -3.8121   15.2415 C   0  0  0  0  0  0  0  0  0  0  0  0
   28.1656   -3.5210   14.0788 C   0  0  0  0  0  0  0  0  0  0  0  0
   28.8657   -2.8620   16.2745 C   0  0  0  0  0  0  0  0  0  0  0  0
   27.4176   -2.3385   13.9715 C   0  0  0  0  0  0  0  0  0  0  0  0
   28.1203   -1.6765   16.1618 C   0  0  0  0  0  0  0  0  0  0  0  0
   27.3744   -1.3991   15.0125 C   0  0  0  0  0  0  0  0  0  0  0  0
   30.6139   -7.0296   16.2028 C   0  0  0  0  0  0  0  0  0  0  0  0
   31.1421   -6.8428   14.8151 N   0  0  0  0  0  0  0  0  0  0  0  0
   30.4253   -5.6594   14.2326 C   0  0  0  0  0  0  0  0  0  0  0  0
   29.7615   -5.8431   16.4586 C   0  0  0  0  0  0  0  0  0  0  0  0
   29.6576   -5.0611   15.3696 C   0  0  0  0  0  0  0  0  0  0  0  0
   31.0007   -7.6873   14.2531 H   0  0  0  0  0  0  0  0  0  0  0  0
   32.1497   -6.6513   14.8526 H   0  0  0  0  0  0  0  0  0  0  0  0
   25.1326   -0.3527   14.4888 C   0  0  0  0  0  0  0  0  0  0  0  0
   24.9258   -0.0240   13.0057 C   0  0  0  0  0  0  0  0  0  0  0  0
   25.2445    1.2632   12.5350 C   0  0  0  0  0  0  0  0  0  0  0  0
   24.3779   -0.9409   12.0921 C   0  0  0  0  0  0  0  0  0  0  0  0
   25.0081    1.6098   11.2065 C   0  0  0  0  0  0  0  0  0  0  0  0
   24.1458   -0.5681   10.7686 C   0  0  0  0  0  0  0  0  0  0  0  0
   25.3244    2.8419   10.7861 F   0  0  0  0  0  0  0  0  0  0  0  0
   24.4555    0.7038   10.3146 C   0  0  0  0  0  0  0  0  0  0  0  0
   23.5837   -1.4487    9.9284 F   0  0  0  0  0  0  0  0  0  0  0  0
   24.1063    0.2474   15.4898 C   0  0  0  0  0  0  0  0  0  0  0  0
   23.9690   -0.4368   16.6861 N   0  0  0  0  0  0  0  0  0  0  0  0
   23.5178    1.3020   15.2569 O   0  0  0  0  0  0  0  0  0  0  0  0
   24.6631   -1.1415   16.9032 H   0  0  0  0  0  0  0  0  0  0  0  0
   23.0994   -0.0254   17.8052 C   0  0  0  0  0  0  0  0  0  0  0  0
   21.7896    0.5946   17.2924 C   0  0  0  0  0  0  0  0  0  0  0  0
   23.8299    0.9582   18.7296 C   0  0  0  0  0  0  0  0  0  0  0  0
   22.7388   -1.2858   18.6101 C   0  0  0  0  0  0  0  0  0  0  0  0
   26.3620    2.2998   15.0373 C   0  0  0  0  0  0  0  0  0  0  0  0
   27.1864    3.5662   15.1309 C   0  0  0  0  0  0  0  0  0  0  0  0
   28.1165    3.6800   16.1650 C   0  0  0  0  0  0  0  0  0  0  0  0
   27.0268    4.6684   14.2497 C   0  0  0  0  0  0  0  0  0  0  0  0
   28.8975    4.7567   16.3681 N   0  0  0  0  0  0  0  0  0  0  0  0
   26.1058    4.7071   13.1772 C   0  0  0  0  0  0  0  0  0  0  0  0
   27.8332    5.8099   14.4515 C   0  0  0  0  0  0  0  0  0  0  0  0
   28.7371    5.7883   15.5131 C   0  0  0  0  0  0  0  0  0  0  0  0
   26.0029    5.8222   12.3400 C   0  0  0  0  0  0  0  0  0  0  0  0
   27.7165    6.9314   13.6091 C   0  0  0  0  0  0  0  0  0  0  0  0
   26.8078    6.9334   12.5542 C   0  0  0  0  0  0  0  0  0  0  0  0
 10 11  1  0
 11 12  1  0
 13 10  1  0
 14 13  2  0
  4 14  1  0
 12 14  1  0
  5  4  2  0
  4  6  1  0
  7  5  1  0
  6  8  2  0
  9  7  2  0
  8  9  1  0
  1  9  1  0
 17  1  1  0
  1  2  1  0
 26 17  1  0
 17 18  1  0
  2  3  2  0
  2 34  1  0
 27 26  1  0
 26 28  2  0
 18 19  2  0
 20 18  1  0
 34 35  1  0
 30 27  1  0
 19 21  1  0
 22 20  2  0
 35 36  2  0
 37 35  1  0
 31 30  1  0
 30 32  1  0
 30 33  1  0
 21 23  1  0
 21 24  2  0
 24 22  1  0
 22 25  1  0
 36 38  1  0
 39 37  2  0
 37 40  1  0
 38 41  2  0
 42 39  1  0
 41 40  1  0
 40 43  2  0
 44 42  2  0
 43 44  1  0
 11 15  1  0
 11 16  1  0
 27 29  1  0
M  CHG 1  11   1
M  END
> <ScrubInfo>
{"isomerGroup": 3, "isomerId": 0, "confId": 0, "nr_conformers:": 1, "nr_isomers:": 1}

> <minimizedAffinity>
-9.11920

> <CNNscore>
0.9053809643

> <CNNaffinity>
7.8054847717

> <CNN_VS>
7.0669374466

> <CNNaffinity_variance>
0.1955294162

$$$$
Compound_63


 44 48  0  0  0  0  0  0  0  0999 V2000
   26.6451    0.0157   14.8842 N   0  0  0  0  0  0  0  0  0  0  0  0
   27.3072    1.2529   15.0195 C   0  0  0  0  0  0  0  0  0  0  0  0
   28.5357    1.3354   15.1449 O   0  0  0  0  0  0  0  0  0  0  0  0
   28.9544   -3.5939   15.2630 C   0  0  0  0  0  0  0  0  0  0  0  0
   28.6333   -3.0565   14.0096 C   0  0  0  0  0  0  0  0  0  0  0  0
   28.5291   -2.8863   16.3984 C   0  0  0  0  0  0  0  0  0  0  0  0
   27.8862   -1.8734   13.9012 C   0  0  0  0  0  0  0  0  0  0  0  0
   27.7861   -1.6993   16.2864 C   0  0  0  0  0  0  0  0  0  0  0  0
   27.4423   -1.1779   15.0358 C   0  0  0  0  0  0  0  0  0  0  0  0
   30.8199   -6.7263   16.2388 C   0  0  0  0  0  0  0  0  0  0  0  0
   31.0118   -6.7471   14.7547 N   0  0  0  0  0  0  0  0  0  0  0  0
   30.1914   -5.6218   14.1944 C   0  0  0  0  0  0  0  0  0  0  0  0
   30.0633   -5.4814   16.5168 C   0  0  0  0  0  0  0  0  0  0  0  0
   29.7164   -4.8464   15.3832 C   0  0  0  0  0  0  0  0  0  0  0  0
   30.7343   -7.6517   14.3626 H   0  0  0  0  0  0  0  0  0  0  0  0
   32.0023   -6.5953   14.5329 H   0  0  0  0  0  0  0  0  0  0  0  0
   25.2051   -0.1174   14.5203 C   0  0  0  0  0  0  0  0  0  0  0  0
   24.9559    0.3120   13.0698 C   0  0  0  0  0  0  0  0  0  0  0  0
   24.4501   -0.6264   12.1514 C   0  0  0  0  0  0  0  0  0  0  0  0
   25.2607    1.5990   12.5940 C   0  0  0  0  0  0  0  0  0  0  0  0
   24.2731   -0.2826   10.8130 C   0  0  0  0  0  0  0  0  0  0  0  0
   25.0798    1.9171   11.2484 C   0  0  0  0  0  0  0  0  0  0  0  0
   23.7869   -1.1960    9.9621 F   0  0  0  0  0  0  0  0  0  0  0  0
   24.5882    0.9851   10.3487 C   0  0  0  0  0  0  0  0  0  0  0  0
   25.4176    3.1390   10.8125 F   0  0  0  0  0  0  0  0  0  0  0  0
   24.1980    0.3962   15.5867 C   0  0  0  0  0  0  0  0  0  0  0  0
   24.1951   -0.2948   16.7869 N   0  0  0  0  0  0  0  0  0  0  0  0
   23.5094    1.3971   15.3954 O   0  0  0  0  0  0  0  0  0  0  0  0
   24.9584   -0.9383   16.9570 H   0  0  0  0  0  0  0  0  0  0  0  0
   23.3671    0.0442   17.9605 C   0  0  0  0  0  0  0  0  0  0  0  0
   24.1372    0.9402   18.9439 C   0  0  0  0  0  0  0  0  0  0  0  0
   22.8777   -1.2273   18.6674 C   0  0  0  0  0  0  0  0  0  0  0  0
   22.1450    0.8349   17.4628 C   0  0  0  0  0  0  0  0  0  0  0  0
   26.4757    2.5329   14.9777 C   0  0  0  0  0  0  0  0  0  0  0  0
   26.2529    3.1427   16.3454 C   0  0  0  0  0  0  0  0  0  0  0  0
   25.0705    3.8475   16.5753 C   0  0  0  0  0  0  0  0  0  0  0  0
   27.2087    3.0787   17.3938 C   0  0  0  0  0  0  0  0  0  0  0  0
   24.7596    4.4491   17.7380 N   0  0  0  0  0  0  0  0  0  0  0  0
   28.4594    2.4257   17.2960 C   0  0  0  0  0  0  0  0  0  0  0  0
   26.9025    3.7100   18.6193 C   0  0  0  0  0  0  0  0  0  0  0  0
   25.6771    4.3670   18.7241 C   0  0  0  0  0  0  0  0  0  0  0  0
   29.3543    2.3926   18.3698 C   0  0  0  0  0  0  0  0  0  0  0  0
   27.8133    3.6790   19.6919 C   0  0  0  0  0  0  0  0  0  0  0  0
   29.0320    3.0174   19.5674 C   0  0  0  0  0  0  0  0  0  0  0  0
 10 11  1  0
 11 12  1  0
 13 10  1  0
 14 13  2  0
  4 14  1  0
 12 14  1  0
  5  4  2  0
  4  6  1  0
  7  5  1  0
  6  8  2  0
  9  7  2  0
  8  9  1  0
  1  9  1  0
 17  1  1  0
  1  2  1  0
 26 17  1  0
 17 18  1  0
  2  3  2  0
  2 34  1  0
 27 26  1  0
 26 28  2  0
 18 19  2  0
 20 18  1  0
 34 35  1  0
 30 27  1  0
 19 21  1  0
 22 20  2  0
 35 36  2  0
 37 35  1  0
 31 30  1  0
 30 32  1  0
 30 33  1  0
 21 23  1  0
 21 24  2  0
 24 22  1  0
 22 25  1  0
 36 38  1  0
 39 37  2  0
 37 40  1  0
 38 41  2  0
 42 39  1  0
 41 40  1  0
 40 43  2  0
 44 42  2  0
 43 44  1  0
 11 15  1  0
 11 16  1  0
 27 29  1  0
M  CHG 1  11   1
M  END
> <ScrubInfo>
{"isomerGroup": 3, "isomerId": 0, "confId": 0, "nr_conformers:": 1, "nr_isomers:": 1}

> <minimizedAffinity>
-8.29146

> <CNNscore>
0.8615743518

> <CNNaffinity>
7.6423077583

> <CNN_VS>
6.5844163895

> <CNNaffinity_variance>
0.1777475625

$$$$
Compound_63


 44 48  0  0  0  0  0  0  0  0999 V2000
   26.5301   -0.2814   14.9310 N   0  0  0  0  0  0  0  0  0  0  0  0
   27.6004   -1.1980   14.8948 C   0  0  0  0  0  0  0  0  0  0  0  0
   28.6874   -0.9674   15.4400 O   0  0  0  0  0  0  0  0  0  0  0  0
   27.3882    3.5888   16.6016 C   0  0  0  0  0  0  0  0  0  0  0  0
   27.2279    3.4043   15.2220 C   0  0  0  0  0  0  0  0  0  0  0  0
   27.2166    2.4674   17.4283 C   0  0  0  0  0  0  0  0  0  0  0  0
   26.9398    2.1374   14.6916 C   0  0  0  0  0  0  0  0  0  0  0  0
   26.9228    1.2015   16.8947 C   0  0  0  0  0  0  0  0  0  0  0  0
   26.7901    1.0122   15.5160 C   0  0  0  0  0  0  0  0  0  0  0  0
   28.8227    6.8918   17.7313 C   0  0  0  0  0  0  0  0  0  0  0  0
   27.4951    6.9220   18.4216 N   0  0  0  0  0  0  0  0  0  0  0  0
   26.7313    5.7197   17.9478 C   0  0  0  0  0  0  0  0  0  0  0  0
   28.8721    5.5816   17.0381 C   0  0  0  0  0  0  0  0  0  0  0  0
   27.7140    4.9094   17.1616 C   0  0  0  0  0  0  0  0  0  0  0  0
   26.9968    7.7934   18.2180 H   0  0  0  0  0  0  0  0  0  0  0  0
   27.6330    6.8647   19.4369 H   0  0  0  0  0  0  0  0  0  0  0  0
   25.1473   -0.6047   14.4757 C   0  0  0  0  0  0  0  0  0  0  0  0
   24.9432   -0.2251   13.0044 C   0  0  0  0  0  0  0  0  0  0  0  0
   25.2722    1.0744   12.5767 C   0  0  0  0  0  0  0  0  0  0  0  0
   24.3878   -1.1067   12.0609 C   0  0  0  0  0  0  0  0  0  0  0  0
   25.0386    1.4669   11.2606 C   0  0  0  0  0  0  0  0  0  0  0  0
   24.1587   -0.6882   10.7506 C   0  0  0  0  0  0  0  0  0  0  0  0
   25.3648    2.7097   10.8813 F   0  0  0  0  0  0  0  0  0  0  0  0
   24.4786    0.5956   10.3391 C   0  0  0  0  0  0  0  0  0  0  0  0
   23.5895   -1.5357    9.8818 F   0  0  0  0  0  0  0  0  0  0  0  0
   24.0125   -0.2168   15.4640 C   0  0  0  0  0  0  0  0  0  0  0  0
   24.2799   -0.4521   16.8023 N   0  0  0  0  0  0  0  0  0  0  0  0
   22.9813    0.3325   15.0798 O   0  0  0  0  0  0  0  0  0  0  0  0
   25.2362   -0.6679   17.0564 H   0  0  0  0  0  0  0  0  0  0  0  0
   23.3786   -0.1149   17.9210 C   0  0  0  0  0  0  0  0  0  0  0  0
   24.0980    0.7412   18.9757 C   0  0  0  0  0  0  0  0  0  0  0  0
   22.8086   -1.3868   18.5638 C   0  0  0  0  0  0  0  0  0  0  0  0
   22.2151    0.7172   17.3548 C   0  0  0  0  0  0  0  0  0  0  0  0
   27.3934   -2.5327   14.1826 C   0  0  0  0  0  0  0  0  0  0  0  0
   28.3817   -3.5961   14.6122 C   0  0  0  0  0  0  0  0  0  0  0  0
   29.5282   -3.7898   13.8406 C   0  0  0  0  0  0  0  0  0  0  0  0
   28.1781   -4.4438   15.7333 C   0  0  0  0  0  0  0  0  0  0  0  0
   30.4736   -4.7102   14.1041 N   0  0  0  0  0  0  0  0  0  0  0  0
   27.0525   -4.3827   16.5872 C   0  0  0  0  0  0  0  0  0  0  0  0
   29.1566   -5.4203   16.0215 C   0  0  0  0  0  0  0  0  0  0  0  0
   30.2656   -5.4980   15.1799 C   0  0  0  0  0  0  0  0  0  0  0  0
   26.9152   -5.2429   17.6809 C   0  0  0  0  0  0  0  0  0  0  0  0
   29.0058   -6.2878   17.1194 C   0  0  0  0  0  0  0  0  0  0  0  0
   27.8910   -6.1942   17.9483 C   0  0  0  0  0  0  0  0  0  0  0  0
 10 11  1  0
 11 12  1  0
 13 10  1  0
 14 13  2  0
  4 14  1  0
 12 14  1  0
  5  4  2  0
  4  6  1  0
  7  5  1  0
  6  8  2  0
  9  7  2  0
  8  9  1  0
  1  9  1  0
 17  1  1  0
  1  2  1  0
 26 17  1  0
 17 18  1  0
  2  3  2  0
  2 34  1  0
 27 26  1  0
 26 28  2  0
 18 19  2  0
 20 18  1  0
 34 35  1  0
 30 27  1  0
 19 21  1  0
 22 20  2  0
 35 36  2  0
 37 35  1  0
 31 30  1  0
 30 32  1  0
 30 33  1  0
 21 23  1  0
 21 24  2  0
 24 22  1  0
 22 25  1  0
 36 38  1  0
 39 37  2  0
 37 40  1  0
 38 41  2  0
 42 39  1  0
 41 40  1  0
 40 43  2  0
 44 42  2  0
 43 44  1  0
 11 15  1  0
 11 16  1  0
 27 29  1  0
M  CHG 1  11   1
M  END
> <ScrubInfo>
{"isomerGroup": 3, "isomerId": 0, "confId": 0, "nr_conformers:": 1, "nr_isomers:": 1}

> <minimizedAffinity>
-8.12593

> <CNNscore>
0.8540467620

> <CNNaffinity>
7.2879257202

> <CNN_VS>
6.2242293358

> <CNNaffinity_variance>
0.5044797063

$$$$
Compound_63


 44 48  0  0  0  0  0  0  0  0999 V2000
   26.5492   -0.1420   15.0487 N   0  0  0  0  0  0  0  0  0  0  0  0
   27.4978   -1.1846   15.0340 C   0  0  0  0  0  0  0  0  0  0  0  0
   28.6160   -1.0688   15.5520 O   0  0  0  0  0  0  0  0  0  0  0  0
   27.7523    3.6443   16.6985 C   0  0  0  0  0  0  0  0  0  0  0  0
   27.6368    2.4993   17.4975 C   0  0  0  0  0  0  0  0  0  0  0  0
   27.5006    3.5025   15.3248 C   0  0  0  0  0  0  0  0  0  0  0  0
   27.2514    1.2686   16.9442 C   0  0  0  0  0  0  0  0  0  0  0  0
   27.1202    2.2678   14.7730 C   0  0  0  0  0  0  0  0  0  0  0  0
   26.9783    1.1316   15.5750 C   0  0  0  0  0  0  0  0  0  0  0  0
   28.1339    6.9351   18.5067 C   0  0  0  0  0  0  0  0  0  0  0  0
   29.3773    6.9371   17.6737 N   0  0  0  0  0  0  0  0  0  0  0  0
   29.4454    5.6020   16.9909 C   0  0  0  0  0  0  0  0  0  0  0  0
   27.4167    5.6917   18.1337 C   0  0  0  0  0  0  0  0  0  0  0  0
   28.1325    4.9425   17.2765 C   0  0  0  0  0  0  0  0  0  0  0  0
   30.2046    7.1110   18.2520 H   0  0  0  0  0  0  0  0  0  0  0  0
   29.3195    7.6818   16.9699 H   0  0  0  0  0  0  0  0  0  0  0  0
   25.1281   -0.3096   14.6291 C   0  0  0  0  0  0  0  0  0  0  0  0
   24.9436    0.0237   13.1440 C   0  0  0  0  0  0  0  0  0  0  0  0
   25.2687    1.3126   12.6823 C   0  0  0  0  0  0  0  0  0  0  0  0
   24.4100   -0.8906   12.2194 C   0  0  0  0  0  0  0  0  0  0  0  0
   25.0522    1.6632   11.3515 C   0  0  0  0  0  0  0  0  0  0  0  0
   24.1977   -0.5137   10.8936 C   0  0  0  0  0  0  0  0  0  0  0  0
   25.3741    2.8967   10.9397 F   0  0  0  0  0  0  0  0  0  0  0  0
   24.5136    0.7597   10.4484 C   0  0  0  0  0  0  0  0  0  0  0  0
   23.6489   -1.3919   10.0424 F   0  0  0  0  0  0  0  0  0  0  0  0
   24.0706    0.2636   15.6131 C   0  0  0  0  0  0  0  0  0  0  0  0
   23.8108   -0.5136   16.7296 N   0  0  0  0  0  0  0  0  0  0  0  0
   23.5615    1.3700   15.4414 O   0  0  0  0  0  0  0  0  0  0  0  0
   24.4464   -1.2775   16.9247 H   0  0  0  0  0  0  0  0  0  0  0  0
   22.8902   -0.1484   17.8235 C   0  0  0  0  0  0  0  0  0  0  0  0
   22.4819   -1.3838   18.6420 C   0  0  0  0  0  0  0  0  0  0  0  0
   21.6462    0.5631   17.2740 C   0  0  0  0  0  0  0  0  0  0  0  0
   23.6347    0.8137   18.7651 C   0  0  0  0  0  0  0  0  0  0  0  0
   27.1136   -2.5105   14.3816 C   0  0  0  0  0  0  0  0  0  0  0  0
   26.8602   -3.6159   15.3845 C   0  0  0  0  0  0  0  0  0  0  0  0
   25.5717   -3.7651   15.8993 C   0  0  0  0  0  0  0  0  0  0  0  0
   27.8787   -4.4791   15.8688 C   0  0  0  0  0  0  0  0  0  0  0  0
   25.2199   -4.6946   16.8063 N   0  0  0  0  0  0  0  0  0  0  0  0
   29.2317   -4.4263   15.4606 C   0  0  0  0  0  0  0  0  0  0  0  0
   27.5294   -5.4566   16.8262 C   0  0  0  0  0  0  0  0  0  0  0  0
   26.2006   -5.5112   17.2451 C   0  0  0  0  0  0  0  0  0  0  0  0
   30.1859   -5.3115   15.9713 C   0  0  0  0  0  0  0  0  0  0  0  0
   28.4985   -6.3379   17.3412 C   0  0  0  0  0  0  0  0  0  0  0  0
   29.8204   -6.2675   16.9099 C   0  0  0  0  0  0  0  0  0  0  0  0
 10 11  1  0
 11 12  1  0
 13 10  1  0
 14 13  2  0
  4 14  1  0
 12 14  1  0
  5  4  2  0
  4  6  1  0
  7  5  1  0
  6  8  2  0
  9  7  2  0
  8  9  1  0
  1  9  1  0
 17  1  1  0
  1  2  1  0
 26 17  1  0
 17 18  1  0
  2  3  2  0
  2 34  1  0
 27 26  1  0
 26 28  2  0
 18 19  2  0
 20 18  1  0
 34 35  1  0
 30 27  1  0
 19 21  1  0
 22 20  2  0
 35 36  2  0
 37 35  1  0
 31 30  1  0
 30 32  1  0
 30 33  1  0
 21 23  1  0
 21 24  2  0
 24 22  1  0
 22 25  1  0
 36 38  1  0
 39 37  2  0
 37 40  1  0
 38 41  2  0
 42 39  1  0
 41 40  1  0
 40 43  2  0
 44 42  2  0
 43 44  1  0
 11 15  1  0
 11 16  1  0
 27 29  1  0
M  CHG 1  11   1
M  END
> <ScrubInfo>
{"isomerGroup": 3, "isomerId": 0, "confId": 0, "nr_conformers:": 1, "nr_isomers:": 1}

> <minimizedAffinity>
-7.90338

> <CNNscore>
0.8212959766

> <CNNaffinity>
7.3898978233

> <CNN_VS>
6.0692934990

> <CNNaffinity_variance>
0.4662182331

$$$$
Compound_63


 44 48  0  0  0  0  0  0  0  0999 V2000
   26.5554   -0.0270   14.8983 N   0  0  0  0  0  0  0  0  0  0  0  0
   27.2096    1.2169   15.0071 C   0  0  0  0  0  0  0  0  0  0  0  0
   28.4373    1.3097   15.1340 O   0  0  0  0  0  0  0  0  0  0  0  0
   28.8731   -3.6183   15.3848 C   0  0  0  0  0  0  0  0  0  0  0  0
   28.3521   -3.2444   14.1391 C   0  0  0  0  0  0  0  0  0  0  0  0
   28.6462   -2.7532   16.4668 C   0  0  0  0  0  0  0  0  0  0  0  0
   27.6048   -2.0655   13.9934 C   0  0  0  0  0  0  0  0  0  0  0  0
   27.9023   -1.5710   16.3165 C   0  0  0  0  0  0  0  0  0  0  0  0
   27.3592   -1.2120   15.0794 C   0  0  0  0  0  0  0  0  0  0  0  0
   30.6180   -6.7911   16.4491 C   0  0  0  0  0  0  0  0  0  0  0  0
   31.0828   -6.6884   15.0303 N   0  0  0  0  0  0  0  0  0  0  0  0
   30.3474   -5.5337   14.4143 C   0  0  0  0  0  0  0  0  0  0  0  0
   29.7859   -5.5844   16.6752 C   0  0  0  0  0  0  0  0  0  0  0  0
   29.6367   -4.8648   15.5491 C   0  0  0  0  0  0  0  0  0  0  0  0
   30.9102   -7.5622   14.5247 H   0  0  0  0  0  0  0  0  0  0  0  0
   32.0922   -6.5041   15.0106 H   0  0  0  0  0  0  0  0  0  0  0  0
   25.1173   -0.1772   14.5335 C   0  0  0  0  0  0  0  0  0  0  0  0
   24.8688    0.2229   13.0746 C   0  0  0  0  0  0  0  0  0  0  0  0
   24.3580   -0.7322   12.1763 C   0  0  0  0  0  0  0  0  0  0  0  0
   25.1788    1.4984   12.5718 C   0  0  0  0  0  0  0  0  0  0  0  0
   24.1815   -0.4156   10.8311 C   0  0  0  0  0  0  0  0  0  0  0  0
   24.9982    1.7891   11.2199 C   0  0  0  0  0  0  0  0  0  0  0  0
   23.6905   -1.3444    9.9999 F   0  0  0  0  0  0  0  0  0  0  0  0
   24.5017    0.8407   10.3402 C   0  0  0  0  0  0  0  0  0  0  0  0
   25.3411    3.0001   10.7583 F   0  0  0  0  0  0  0  0  0  0  0  0
   24.1038    0.3494   15.5875 C   0  0  0  0  0  0  0  0  0  0  0  0
   23.9158   -0.4632   16.6931 N   0  0  0  0  0  0  0  0  0  0  0  0
   23.5685    1.4509   15.4746 O   0  0  0  0  0  0  0  0  0  0  0  0
   24.5731   -1.2209   16.8327 H   0  0  0  0  0  0  0  0  0  0  0  0
   23.0483   -0.1452   17.8437 C   0  0  0  0  0  0  0  0  0  0  0  0
   23.7838    0.7335   18.8683 C   0  0  0  0  0  0  0  0  0  0  0  0
   22.5362   -1.4290   18.5111 C   0  0  0  0  0  0  0  0  0  0  0  0
   21.8431    0.6539   17.3189 C   0  0  0  0  0  0  0  0  0  0  0  0
   26.3706    2.4906   14.9336 C   0  0  0  0  0  0  0  0  0  0  0  0
   26.9928    3.6564   15.6725 C   0  0  0  0  0  0  0  0  0  0  0  0
   28.1548    4.2293   15.1539 C   0  0  0  0  0  0  0  0  0  0  0  0
   26.4834    4.1665   16.8961 C   0  0  0  0  0  0  0  0  0  0  0  0
   28.8130    5.2564   15.7215 N   0  0  0  0  0  0  0  0  0  0  0  0
   25.3343    3.6682   17.5528 C   0  0  0  0  0  0  0  0  0  0  0  0
   27.1649    5.2401   17.5100 C   0  0  0  0  0  0  0  0  0  0  0  0
   28.3061    5.7326   16.8780 C   0  0  0  0  0  0  0  0  0  0  0  0
   24.8798    4.2207   18.7541 C   0  0  0  0  0  0  0  0  0  0  0  0
   26.7052    5.7842   18.7239 C   0  0  0  0  0  0  0  0  0  0  0  0
   25.5633    5.2784   19.3394 C   0  0  0  0  0  0  0  0  0  0  0  0
 10 11  1  0
 11 12  1  0
 13 10  1  0
 14 13  2  0
  4 14  1  0
 12 14  1  0
  5  4  2  0
  4  6  1  0
  7  5  1  0
  6  8  2  0
  9  7  2  0
  8  9  1  0
  1  9  1  0
 17  1  1  0
  1  2  1  0
 26 17  1  0
 17 18  1  0
  2  3  2  0
  2 34  1  0
 27 26  1  0
 26 28  2  0
 18 19  2  0
 20 18  1  0
 34 35  1  0
 30 27  1  0
 19 21  1  0
 22 20  2  0
 35 36  2  0
 37 35  1  0
 31 30  1  0
 30 32  1  0
 30 33  1  0
 21 23  1  0
 21 24  2  0
 24 22  1  0
 22 25  1  0
 36 38  1  0
 39 37  2  0
 37 40  1  0
 38 41  2  0
 42 39  1  0
 41 40  1  0
 40 43  2  0
 44 42  2  0
 43 44  1  0
 11 15  1  0
 11 16  1  0
 27 29  1  0
M  CHG 1  11   1
M  END
> <ScrubInfo>
{"isomerGroup": 3, "isomerId": 0, "confId": 0, "nr_conformers:": 1, "nr_isomers:": 1}

> <minimizedAffinity>
-8.61747

> <CNNscore>
0.7850481868

> <CNNaffinity>
7.5730385780

> <CNN_VS>
5.9451999664

> <CNNaffinity_variance>
0.2117762715

$$$$
Compound_63


 44 48  0  0  0  0  0  0  0  0999 V2000
   26.6274    1.3176   15.8676 N   0  0  0  0  0  0  0  0  0  0  0  0
   26.8308    1.7255   17.2015 C   0  0  0  0  0  0  0  0  0  0  0  0
   27.5482    1.0908   17.9853 O   0  0  0  0  0  0  0  0  0  0  0  0
   28.2732   -2.5136   14.8100 C   0  0  0  0  0  0  0  0  0  0  0  0
   27.1226   -2.4027   15.6016 C   0  0  0  0  0  0  0  0  0  0  0  0
   28.8497   -1.3246   14.3365 C   0  0  0  0  0  0  0  0  0  0  0  0
   26.5919   -1.1462   15.9319 C   0  0  0  0  0  0  0  0  0  0  0  0
   28.3128   -0.0685   14.6644 C   0  0  0  0  0  0  0  0  0  0  0  0
   27.1807    0.0430   15.4770 C   0  0  0  0  0  0  0  0  0  0  0  0
   30.3239   -5.6258   14.2153 C   0  0  0  0  0  0  0  0  0  0  0  0
   29.0160   -6.0445   13.6202 N   0  0  0  0  0  0  0  0  0  0  0  0
   28.0343   -4.9470   13.9121 C   0  0  0  0  0  0  0  0  0  0  0  0
   30.1210   -4.2243   14.6559 C   0  0  0  0  0  0  0  0  0  0  0  0
   28.8483   -3.8268   14.4803 C   0  0  0  0  0  0  0  0  0  0  0  0
   28.7089   -6.9419   14.0067 H   0  0  0  0  0  0  0  0  0  0  0  0
   29.1186   -6.1543   12.6050 H   0  0  0  0  0  0  0  0  0  0  0  0
   25.9504    2.1582   14.8387 C   0  0  0  0  0  0  0  0  0  0  0  0
   25.4375    1.3049   13.6728 C   0  0  0  0  0  0  0  0  0  0  0  0
   25.4949    1.8207   12.3649 C   0  0  0  0  0  0  0  0  0  0  0  0
   24.8579    0.0373   13.8547 C   0  0  0  0  0  0  0  0  0  0  0  0
   24.9787    1.0941   11.2941 C   0  0  0  0  0  0  0  0  0  0  0  0
   24.3434   -0.6680   12.7673 C   0  0  0  0  0  0  0  0  0  0  0  0
   25.0501    1.6093   10.0595 F   0  0  0  0  0  0  0  0  0  0  0  0
   24.3970   -0.1500   11.4834 C   0  0  0  0  0  0  0  0  0  0  0  0
   23.7585   -1.8564   12.9742 F   0  0  0  0  0  0  0  0  0  0  0  0
   26.6807    3.4800   14.4721 C   0  0  0  0  0  0  0  0  0  0  0  0
   25.8586    4.5471   14.1506 N   0  0  0  0  0  0  0  0  0  0  0  0
   27.9045    3.5821   14.5409 O   0  0  0  0  0  0  0  0  0  0  0  0
   24.8720    4.4560   14.3602 H   0  0  0  0  0  0  0  0  0  0  0  0
   26.3229    5.9094   13.8248 C   0  0  0  0  0  0  0  0  0  0  0  0
   27.8577    5.9932   13.8449 C   0  0  0  0  0  0  0  0  0  0  0  0
   25.7193    6.9367   14.7924 C   0  0  0  0  0  0  0  0  0  0  0  0
   25.8532    6.2389   12.3974 C   0  0  0  0  0  0  0  0  0  0  0  0
   26.1641    3.0133   17.6796 C   0  0  0  0  0  0  0  0  0  0  0  0
   25.0480    2.7721   18.6737 C   0  0  0  0  0  0  0  0  0  0  0  0
   25.1568    3.3350   19.9461 C   0  0  0  0  0  0  0  0  0  0  0  0
   23.9173    1.9590   18.3959 C   0  0  0  0  0  0  0  0  0  0  0  0
   24.2446    3.1832   20.9235 N   0  0  0  0  0  0  0  0  0  0  0  0
   23.6883    1.3028   17.1642 C   0  0  0  0  0  0  0  0  0  0  0  0
   22.9527    1.7827   19.4119 C   0  0  0  0  0  0  0  0  0  0  0  0
   23.1730    2.4154   20.6348 C   0  0  0  0  0  0  0  0  0  0  0  0
   22.5489    0.5208   16.9515 C   0  0  0  0  0  0  0  0  0  0  0  0
   21.8131    0.9866   19.1919 C   0  0  0  0  0  0  0  0  0  0  0  0
   21.6110    0.3632   17.9634 C   0  0  0  0  0  0  0  0  0  0  0  0
 10 11  1  0
 11 12  1  0
 13 10  1  0
 14 13  2  0
  4 14  1  0
 12 14  1  0
  5  4  2  0
  4  6  1  0
  7  5  1  0
  6  8  2  0
  9  7  2  0
  8  9  1  0
  1  9  1  0
 17  1  1  0
  1  2  1  0
 26 17  1  0
 17 18  1  0
  2  3  2  0
  2 34  1  0
 27 26  1  0
 26 28  2  0
 18 19  2  0
 20 18  1  0
 34 35  1  0
 30 27  1  0
 19 21  1  0
 22 20  2  0
 35 36  2  0
 37 35  1  0
 31 30  1  0
 30 32  1  0
 30 33  1  0
 21 23  1  0
 21 24  2  0
 24 22  1  0
 22 25  1  0
 36 38  1  0
 39 37  2  0
 37 40  1  0
 38 41  2  0
 42 39  1  0
 41 40  1  0
 40 43  2  0
 44 42  2  0
 43 44  1  0
 11 15  1  0
 11 16  1  0
 27 29  1  0
M  CHG 1  11   1
M  END
> <ScrubInfo>
{"isomerGroup": 3, "isomerId": 0, "confId": 0, "nr_conformers:": 1, "nr_isomers:": 1}

> <minimizedAffinity>
-8.55420

> <CNNscore>
0.7308210731

> <CNNaffinity>
7.2968058586

> <CNN_VS>
5.3326597214

> <CNNaffinity_variance>
0.7190836072

$$$$
Compound_63


 44 48  0  0  0  0  0  0  0  0999 V2000
   26.7277    1.3448   15.9319 N   0  0  0  0  0  0  0  0  0  0  0  0
   27.0235    1.7703   17.2428 C   0  0  0  0  0  0  0  0  0  0  0  0
   27.7627    1.1246   17.9969 O   0  0  0  0  0  0  0  0  0  0  0  0
   28.1583   -2.5036   14.6477 C   0  0  0  0  0  0  0  0  0  0  0  0
   28.6924   -1.3139   14.1355 C   0  0  0  0  0  0  0  0  0  0  0  0
   27.1628   -2.3948   15.6314 C   0  0  0  0  0  0  0  0  0  0  0  0
   28.2218   -0.0653   14.5698 C   0  0  0  0  0  0  0  0  0  0  0  0
   26.6976   -1.1432   16.0681 C   0  0  0  0  0  0  0  0  0  0  0  0
   27.2113    0.0435   15.5369 C   0  0  0  0  0  0  0  0  0  0  0  0
   29.9747   -5.6651   13.6732 C   0  0  0  0  0  0  0  0  0  0  0  0
   28.6071   -5.9635   13.1438 N   0  0  0  0  0  0  0  0  0  0  0  0
   27.7146   -4.8411   13.5878 C   0  0  0  0  0  0  0  0  0  0  0  0
   29.8860   -4.2942   14.2320 C   0  0  0  0  0  0  0  0  0  0  0  0
   28.6304   -3.8156   14.1790 C   0  0  0  0  0  0  0  0  0  0  0  0
   28.2738   -6.8709   13.4823 H   0  0  0  0  0  0  0  0  0  0  0  0
   28.6341   -5.9975   12.1184 H   0  0  0  0  0  0  0  0  0  0  0  0
   26.0218    2.1900   14.9264 C   0  0  0  0  0  0  0  0  0  0  0  0
   25.4381    1.3370   13.7941 C   0  0  0  0  0  0  0  0  0  0  0  0
   24.7600    0.1450   14.1096 C   0  0  0  0  0  0  0  0  0  0  0  0
   25.5942    1.6648   12.4362 C   0  0  0  0  0  0  0  0  0  0  0  0
   24.2744   -0.6819   13.0990 C   0  0  0  0  0  0  0  0  0  0  0  0
   25.1037    0.8176   11.4430 C   0  0  0  0  0  0  0  0  0  0  0  0
   23.6302   -1.8090   13.4296 F   0  0  0  0  0  0  0  0  0  0  0  0
   24.4436   -0.3581   11.7617 C   0  0  0  0  0  0  0  0  0  0  0  0
   25.3026    1.1332   10.1553 F   0  0  0  0  0  0  0  0  0  0  0  0
   26.7620    3.4925   14.5132 C   0  0  0  0  0  0  0  0  0  0  0  0
   25.9486    4.5756   14.2246 N   0  0  0  0  0  0  0  0  0  0  0  0
   27.9896    3.5674   14.5199 O   0  0  0  0  0  0  0  0  0  0  0  0
   24.9719    4.5082   14.4839 H   0  0  0  0  0  0  0  0  0  0  0  0
   26.4261    5.9248   13.8650 C   0  0  0  0  0  0  0  0  0  0  0  0
   26.0699    6.2710   12.4103 C   0  0  0  0  0  0  0  0  0  0  0  0
   27.9401    6.0439   14.0869 C   0  0  0  0  0  0  0  0  0  0  0  0
   25.7114    6.9366   14.7770 C   0  0  0  0  0  0  0  0  0  0  0  0
   26.4324    3.0907   17.7314 C   0  0  0  0  0  0  0  0  0  0  0  0
   25.3869    2.9112   18.8115 C   0  0  0  0  0  0  0  0  0  0  0  0
   25.6455    3.4298   20.0810 C   0  0  0  0  0  0  0  0  0  0  0  0
   24.1755    2.1966   18.6143 C   0  0  0  0  0  0  0  0  0  0  0  0
   24.8083    3.3239   21.1290 N   0  0  0  0  0  0  0  0  0  0  0  0
   23.7934    1.5933   17.3937 C   0  0  0  0  0  0  0  0  0  0  0  0
   23.2874    2.0694   19.7048 C   0  0  0  0  0  0  0  0  0  0  0  0
   23.6583    2.6502   20.9170 C   0  0  0  0  0  0  0  0  0  0  0  0
   22.5813    0.9088   17.2628 C   0  0  0  0  0  0  0  0  0  0  0  0
   22.0733    1.3710   19.5662 C   0  0  0  0  0  0  0  0  0  0  0  0
   21.7208    0.7981   18.3472 C   0  0  0  0  0  0  0  0  0  0  0  0
 10 11  1  0
 11 12  1  0
 13 10  1  0
 14 13  2  0
  4 14  1  0
 12 14  1  0
  5  4  2  0
  4  6  1  0
  7  5  1  0
  6  8  2  0
  9  7  2  0
  8  9  1  0
  1  9  1  0
 17  1  1  0
  1  2  1  0
 26 17  1  0
 17 18  1  0
  2  3  2  0
  2 34  1  0
 27 26  1  0
 26 28  2  0
 18 19  2  0
 20 18  1  0
 34 35  1  0
 30 27  1  0
 19 21  1  0
 22 20  2  0
 35 36  2  0
 37 35  1  0
 31 30  1  0
 30 32  1  0
 30 33  1  0
 21 23  1  0
 21 24  2  0
 24 22  1  0
 22 25  1  0
 36 38  1  0
 39 37  2  0
 37 40  1  0
 38 41  2  0
 42 39  1  0
 41 40  1  0
 40 43  2  0
 44 42  2  0
 43 44  1  0
 11 15  1  0
 11 16  1  0
 27 29  1  0
M  CHG 1  11   1
M  END
> <ScrubInfo>
{"isomerGroup": 3, "isomerId": 0, "confId": 0, "nr_conformers:": 1, "nr_isomers:": 1}

> <minimizedAffinity>
-8.63400

> <CNNscore>
0.6717095971

> <CNNaffinity>
7.2702546120

> <CNN_VS>
4.8834996223

> <CNNaffinity_variance>
0.7045149207

$$$$
Compound_63


 44 48  0  0  0  0  0  0  0  0999 V2000
   25.2522   -0.2746   16.3472 N   0  0  0  0  0  0  0  0  0  0  0  0
   24.3678   -0.0191   15.2797 C   0  0  0  0  0  0  0  0  0  0  0  0
   23.6318    0.9758   15.2540 O   0  0  0  0  0  0  0  0  0  0  0  0
   24.9092    2.3495   19.7386 C   0  0  0  0  0  0  0  0  0  0  0  0
   24.0311    1.2739   19.5514 C   0  0  0  0  0  0  0  0  0  0  0  0
   25.9368    2.5170   18.7972 C   0  0  0  0  0  0  0  0  0  0  0  0
   24.1600    0.4209   18.4446 C   0  0  0  0  0  0  0  0  0  0  0  0
   26.0665    1.6579   17.6932 C   0  0  0  0  0  0  0  0  0  0  0  0
   25.1737    0.6013   17.4917 C   0  0  0  0  0  0  0  0  0  0  0  0
   24.6409    5.1808   22.2199 C   0  0  0  0  0  0  0  0  0  0  0  0
   24.5033    4.0041   23.1344 N   0  0  0  0  0  0  0  0  0  0  0  0
   24.4446    2.7820   22.2648 C   0  0  0  0  0  0  0  0  0  0  0  0
   24.8586    4.6031   20.8713 C   0  0  0  0  0  0  0  0  0  0  0  0
   24.7646    3.2617   20.8836 C   0  0  0  0  0  0  0  0  0  0  0  0
   23.6690    4.0931   23.7219 H   0  0  0  0  0  0  0  0  0  0  0  0
   25.3217    3.9494   23.7513 H   0  0  0  0  0  0  0  0  0  0  0  0
   26.2993   -1.3360   16.3191 C   0  0  0  0  0  0  0  0  0  0  0  0
   27.5031   -0.9075   15.4719 C   0  0  0  0  0  0  0  0  0  0  0  0
   28.7672   -0.7948   16.0796 C   0  0  0  0  0  0  0  0  0  0  0  0
   27.3946   -0.5674   14.1124 C   0  0  0  0  0  0  0  0  0  0  0  0
   29.8662   -0.3471   15.3497 C   0  0  0  0  0  0  0  0  0  0  0  0
   28.5085   -0.1166   13.4048 C   0  0  0  0  0  0  0  0  0  0  0  0
   31.0580   -0.2526   15.9541 F   0  0  0  0  0  0  0  0  0  0  0  0
   29.7484   -0.0012   14.0123 C   0  0  0  0  0  0  0  0  0  0  0  0
   28.3685    0.2409   12.1203 F   0  0  0  0  0  0  0  0  0  0  0  0
   25.7750   -2.7840   16.1108 C   0  0  0  0  0  0  0  0  0  0  0  0
   26.3310   -3.7452   16.9385 N   0  0  0  0  0  0  0  0  0  0  0  0
   24.8717   -3.0355   15.3149 O   0  0  0  0  0  0  0  0  0  0  0  0
   26.8756   -3.4222   17.7288 H   0  0  0  0  0  0  0  0  0  0  0  0
   25.9507   -5.1709   16.9601 C   0  0  0  0  0  0  0  0  0  0  0  0
   24.4932   -5.3505   17.4143 C   0  0  0  0  0  0  0  0  0  0  0  0
   26.8951   -5.9728   17.8660 C   0  0  0  0  0  0  0  0  0  0  0  0
   26.0652   -5.7113   15.5244 C   0  0  0  0  0  0  0  0  0  0  0  0
   24.3452   -0.9919   14.1030 C   0  0  0  0  0  0  0  0  0  0  0  0
   24.3803   -0.2992   12.7573 C   0  0  0  0  0  0  0  0  0  0  0  0
   24.0034   -1.0237   11.6257 C   0  0  0  0  0  0  0  0  0  0  0  0
   24.8264    1.0372   12.5787 C   0  0  0  0  0  0  0  0  0  0  0  0
   24.0060   -0.5310   10.3736 N   0  0  0  0  0  0  0  0  0  0  0  0
   25.2647    1.8801   13.6263 C   0  0  0  0  0  0  0  0  0  0  0  0
   24.8423    1.5693   11.2707 C   0  0  0  0  0  0  0  0  0  0  0  0
   24.4234    0.7440   10.2277 C   0  0  0  0  0  0  0  0  0  0  0  0
   25.6853    3.1913   13.3843 C   0  0  0  0  0  0  0  0  0  0  0  0
   25.2757    2.8875   11.0353 C   0  0  0  0  0  0  0  0  0  0  0  0
   25.6901    3.6959   12.0904 C   0  0  0  0  0  0  0  0  0  0  0  0
 10 11  1  0
 11 12  1  0
 13 10  1  0
 14 13  2  0
  4 14  1  0
 12 14  1  0
  5  4  2  0
  4  6  1  0
  7  5  1  0
  6  8  2  0
  9  7  2  0
  8  9  1  0
  1  9  1  0
 17  1  1  0
  1  2  1  0
 26 17  1  0
 17 18  1  0
  2  3  2  0
  2 34  1  0
 27 26  1  0
 26 28  2  0
 18 19  2  0
 20 18  1  0
 34 35  1  0
 30 27  1  0
 19 21  1  0
 22 20  2  0
 35 36  2  0
 37 35  1  0
 31 30  1  0
 30 32  1  0
 30 33  1  0
 21 23  1  0
 21 24  2  0
 24 22  1  0
 22 25  1  0
 36 38  1  0
 39 37  2  0
 37 40  1  0
 38 41  2  0
 42 39  1  0
 41 40  1  0
 40 43  2  0
 44 42  2  0
 43 44  1  0
 11 15  1  0
 11 16  1  0
 27 29  1  0
M  CHG 1  11   1
M  END
> <ScrubInfo>
{"isomerGroup": 3, "isomerId": 0, "confId": 0, "nr_conformers:": 1, "nr_isomers:": 1}

> <minimizedAffinity>
-7.63101

> <CNNscore>
0.6148661375

> <CNNaffinity>
7.3322882652

> <CNN_VS>
4.5083756447

> <CNNaffinity_variance>
0.1422610730

$$$$
Compound_63


 44 48  0  0  0  0  0  0  0  0999 V2000
   25.9231   -0.6244   15.6228 N   0  0  0  0  0  0  0  0  0  0  0  0
   24.7163   -0.7759   16.3354 C   0  0  0  0  0  0  0  0  0  0  0  0
   24.4536   -1.7981   16.9819 O   0  0  0  0  0  0  0  0  0  0  0  0
   28.6170   -3.9735   15.4435 C   0  0  0  0  0  0  0  0  0  0  0  0
   28.6766   -3.0390   16.4856 C   0  0  0  0  0  0  0  0  0  0  0  0
   27.6143   -3.8009   14.4765 C   0  0  0  0  0  0  0  0  0  0  0  0
   27.7858   -1.9558   16.5359 C   0  0  0  0  0  0  0  0  0  0  0  0
   26.7205   -2.7185   14.5326 C   0  0  0  0  0  0  0  0  0  0  0  0
   26.7977   -1.7708   15.5574 C   0  0  0  0  0  0  0  0  0  0  0  0
   31.2406   -6.5756   14.6752 C   0  0  0  0  0  0  0  0  0  0  0  0
   30.6653   -7.1348   15.9386 N   0  0  0  0  0  0  0  0  0  0  0  0
   29.6879   -6.1204   16.4575 C   0  0  0  0  0  0  0  0  0  0  0  0
   30.4446   -5.3571   14.3901 C   0  0  0  0  0  0  0  0  0  0  0  0
   29.5633   -5.0975   15.3720 C   0  0  0  0  0  0  0  0  0  0  0  0
   31.4036   -7.3344   16.6197 H   0  0  0  0  0  0  0  0  0  0  0  0
   30.1750   -8.0131   15.7350 H   0  0  0  0  0  0  0  0  0  0  0  0
   26.3687    0.6612   15.0126 C   0  0  0  0  0  0  0  0  0  0  0  0
   25.7541    0.8594   13.6221 C   0  0  0  0  0  0  0  0  0  0  0  0
   25.1782   -0.2410   12.9609 C   0  0  0  0  0  0  0  0  0  0  0  0
   25.7845    2.0909   12.9452 C   0  0  0  0  0  0  0  0  0  0  0  0
   24.6689   -0.1047   11.6713 C   0  0  0  0  0  0  0  0  0  0  0  0
   25.2729    2.2004   11.6525 C   0  0  0  0  0  0  0  0  0  0  0  0
   24.1237   -1.1692   11.0678 F   0  0  0  0  0  0  0  0  0  0  0  0
   24.7141    1.1103   11.0052 C   0  0  0  0  0  0  0  0  0  0  0  0
   25.3521    3.3764   11.0137 F   0  0  0  0  0  0  0  0  0  0  0  0
   27.8822    0.9807   15.1625 C   0  0  0  0  0  0  0  0  0  0  0  0
   28.2742    1.4442   16.4073 N   0  0  0  0  0  0  0  0  0  0  0  0
   28.6818    0.7603   14.2543 O   0  0  0  0  0  0  0  0  0  0  0  0
   27.6104    1.3590   17.1674 H   0  0  0  0  0  0  0  0  0  0  0  0
   29.6618    1.7589   16.7985 C   0  0  0  0  0  0  0  0  0  0  0  0
   29.8684    1.5742   18.3105 C   0  0  0  0  0  0  0  0  0  0  0  0
   30.0354    3.1873   16.3791 C   0  0  0  0  0  0  0  0  0  0  0  0
   30.5918    0.7713   16.0732 C   0  0  0  0  0  0  0  0  0  0  0  0
   23.7169    0.3785   16.3300 C   0  0  0  0  0  0  0  0  0  0  0  0
   23.8011    1.2445   17.5691 C   0  0  0  0  0  0  0  0  0  0  0  0
   23.2457    0.7642   18.7558 C   0  0  0  0  0  0  0  0  0  0  0  0
   24.3721    2.5448   17.5753 C   0  0  0  0  0  0  0  0  0  0  0  0
   23.2399    1.4404   19.9190 N   0  0  0  0  0  0  0  0  0  0  0  0
   24.9447    3.1714   16.4442 C   0  0  0  0  0  0  0  0  0  0  0  0
   24.3690    3.2722   18.7856 C   0  0  0  0  0  0  0  0  0  0  0  0
   23.7968    2.6695   19.9053 C   0  0  0  0  0  0  0  0  0  0  0  0
   25.4981    4.4533   16.5187 C   0  0  0  0  0  0  0  0  0  0  0  0
   24.9204    4.5656   18.8492 C   0  0  0  0  0  0  0  0  0  0  0  0
   25.4874    5.1501   17.7199 C   0  0  0  0  0  0  0  0  0  0  0  0
 10 11  1  0
 11 12  1  0
 13 10  1  0
 14 13  2  0
  4 14  1  0
 12 14  1  0
  5  4  2  0
  4  6  1  0
  7  5  1  0
  6  8  2  0
  9  7  2  0
  8  9  1  0
  1  9  1  0
 17  1  1  0
  1  2  1  0
 26 17  1  0
 17 18  1  0
  2  3  2  0
  2 34  1  0
 27 26  1  0
 26 28  2  0
 18 19  2  0
 20 18  1  0
 34 35  1  0
 30 27  1  0
 19 21  1  0
 22 20  2  0
 35 36  2  0
 37 35  1  0
 31 30  1  0
 30 32  1  0
 30 33  1  0
 21 23  1  0
 21 24  2  0
 24 22  1  0
 22 25  1  0
 36 38  1  0
 39 37  2  0
 37 40  1  0
 38 41  2  0
 42 39  1  0
 41 40  1  0
 40 43  2  0
 44 42  2  0
 43 44  1  0
 11 15  1  0
 11 16  1  0
 27 29  1  0
M  CHG 1  11   1
M  END
> <ScrubInfo>
{"isomerGroup": 3, "isomerId": 0, "confId": 0, "nr_conformers:": 1, "nr_isomers:": 1}

> <minimizedAffinity>
-8.58965

> <CNNscore>
0.4292064011

> <CNNaffinity>
6.8414034843

> <CNN_VS>
2.9363741875

> <CNNaffinity_variance>
0.4601032436

$$$$
Compound_12_i1


 35 39  0  0  0  0  0  0  0  0999 V2000
   25.4428   -1.2781   15.0394 N   0  0  0  0  0  0  0  0  0  0  0  0
   25.3423   -0.2534   16.0090 C   0  0  0  0  0  0  0  0  0  0  0  0
   26.1866   -0.0704   16.8895 O   0  0  0  0  0  0  0  0  0  0  0  0
   28.5236   -4.2723   15.3002 C   0  0  0  0  0  0  0  0  0  0  0  0
   28.7099   -3.1113   14.5445 C   0  0  0  0  0  0  0  0  0  0  0  0
   27.7112   -2.1277   14.4639 C   0  0  0  0  0  0  0  0  0  0  0  0
   26.4908   -2.2694   15.1382 C   0  0  0  0  0  0  0  0  0  0  0  0
   26.3157   -3.4338   15.8991 C   0  0  0  0  0  0  0  0  0  0  0  0
   27.3126   -4.4182   15.9812 C   0  0  0  0  0  0  0  0  0  0  0  0
   30.6148   -5.4020   14.4763 N   0  0  0  0  0  0  0  0  0  0  0  0
   31.4059   -6.4434   14.8663 C   0  0  0  0  0  0  0  0  0  0  0  0
   30.9482   -7.0127   15.9547 N   0  0  0  0  0  0  0  0  0  0  0  0
   29.8164   -6.3076   16.2757 C   0  0  0  0  0  0  0  0  0  0  0  0
   29.5732   -5.2871   15.3716 C   0  0  0  0  0  0  0  0  0  0  0  0
   30.7828   -4.8068   13.6786 H   0  0  0  0  0  0  0  0  0  0  0  0
   24.5021   -1.3749   13.9072 C   0  0  0  0  0  0  0  0  0  0  0  0
   24.6662   -0.2702   12.8821 C   0  0  0  0  0  0  0  0  0  0  0  0
   24.3251   -0.4634   11.5353 C   0  0  0  0  0  0  0  0  0  0  0  0
   24.5110    0.5615   10.6102 C   0  0  0  0  0  0  0  0  0  0  0  0
   24.1704    0.3592    9.3312 F   0  0  0  0  0  0  0  0  0  0  0  0
   25.0447    1.7854   10.9879 C   0  0  0  0  0  0  0  0  0  0  0  0
   25.4046    1.9791   12.3161 C   0  0  0  0  0  0  0  0  0  0  0  0
   26.0791    3.4833   12.8080 Cl  0  0  0  0  0  0  0  0  0  0  0  0
   25.2256    0.9627   13.2593 C   0  0  0  0  0  0  0  0  0  0  0  0
   24.1171    0.6617   15.9309 C   0  0  0  0  0  0  0  0  0  0  0  0
   23.3657    0.8091   17.2371 C   0  0  0  0  0  0  0  0  0  0  0  0
   22.2854   -0.0388   17.4866 C   0  0  0  0  0  0  0  0  0  0  0  0
   21.5173    0.0032   18.5931 N   0  0  0  0  0  0  0  0  0  0  0  0
   21.8543    0.9265   19.5189 C   0  0  0  0  0  0  0  0  0  0  0  0
   22.9204    1.8194   19.4024 C   0  0  0  0  0  0  0  0  0  0  0  0
   23.2124    2.7515   20.4150 C   0  0  0  0  0  0  0  0  0  0  0  0
   24.2866    3.6286   20.2847 C   0  0  0  0  0  0  0  0  0  0  0  0
   25.0799    3.5808   19.1452 C   0  0  0  0  0  0  0  0  0  0  0  0
   24.7962    2.6598   18.1319 C   0  0  0  0  0  0  0  0  0  0  0  0
   23.7086    1.7610   18.2311 C   0  0  0  0  0  0  0  0  0  0  0  0
 10 11  1  0
 11 12  2  0
 12 13  1  0
 13 14  2  0
 14  4  1  0
  4  5  2  0
  5  6  1  0
  6  7  2  0
  7  1  1  0
  1 16  1  0
 16 17  1  0
 17 18  2  0
 18 19  1  0
 19 20  1  0
 19 21  2  0
 21 22  1  0
 22 23  1  0
 22 24  2  0
  1  2  1  0
  2  3  2  0
  2 25  1  0
 25 26  1  0
 26 27  2  0
 27 28  1  0
 28 29  2  0
 29 30  1  0
 30 31  2  0
 31 32  1  0
 32 33  2  0
 33 34  1  0
 34 35  2  0
  7  8  1  0
  8  9  2  0
 14 10  1  0
  9  4  1  0
 24 17  1  0
 35 26  1  0
 35 30  1  0
 10 15  1  0
M  END
> <ScrubInfo>
{"isomerGroup": 4, "isomerId": 1, "confId": 0, "nr_conformers:": 1, "nr_isomers:": 2}

> <minimizedAffinity>
-9.20305

> <CNNscore>
0.7355419993

> <CNNaffinity>
7.2758355141

> <CNN_VS>
5.3516826630

> <CNNaffinity_variance>
0.2777236998

$$$$
Compound_12_i1


 35 39  0  0  0  0  0  0  0  0999 V2000
   26.0895   -0.6107   15.4228 N   0  0  0  0  0  0  0  0  0  0  0  0
   24.8046   -0.7693   15.9922 C   0  0  0  0  0  0  0  0  0  0  0  0
   24.4507   -1.7892   16.5890 O   0  0  0  0  0  0  0  0  0  0  0  0
   28.8029   -3.9512   15.3765 C   0  0  0  0  0  0  0  0  0  0  0  0
   27.7980   -3.8265   14.4132 C   0  0  0  0  0  0  0  0  0  0  0  0
   26.9162   -2.7338   14.4190 C   0  0  0  0  0  0  0  0  0  0  0  0
   27.0097   -1.7255   15.3878 C   0  0  0  0  0  0  0  0  0  0  0  0
   28.0251   -1.8556   16.3458 C   0  0  0  0  0  0  0  0  0  0  0  0
   28.9075   -2.9468   16.3418 C   0  0  0  0  0  0  0  0  0  0  0  0
   30.7168   -5.2835   14.4331 N   0  0  0  0  0  0  0  0  0  0  0  0
   31.3694   -6.4435   14.7349 C   0  0  0  0  0  0  0  0  0  0  0  0
   30.8552   -7.0224   15.7927 N   0  0  0  0  0  0  0  0  0  0  0  0
   29.8301   -6.2001   16.1850 C   0  0  0  0  0  0  0  0  0  0  0  0
   29.7112   -5.0965   15.3568 C   0  0  0  0  0  0  0  0  0  0  0  0
   30.9511   -4.6615   13.6735 H   0  0  0  0  0  0  0  0  0  0  0  0
   26.5368    0.6749   14.8540 C   0  0  0  0  0  0  0  0  0  0  0  0
   25.9290    0.9872   13.5008 C   0  0  0  0  0  0  0  0  0  0  0  0
   25.9651    2.2819   12.9623 C   0  0  0  0  0  0  0  0  0  0  0  0
   25.3755    2.5454   11.7279 C   0  0  0  0  0  0  0  0  0  0  0  0
   25.4291    3.7863   11.2278 F   0  0  0  0  0  0  0  0  0  0  0  0
   24.7317    1.5482   11.0091 C   0  0  0  0  0  0  0  0  0  0  0  0
   24.6732    0.2669   11.5440 C   0  0  0  0  0  0  0  0  0  0  0  0
   23.8710   -0.9846   10.6783 Cl  0  0  0  0  0  0  0  0  0  0  0  0
   25.2590   -0.0171   12.7813 C   0  0  0  0  0  0  0  0  0  0  0  0
   23.8302    0.4032   15.8501 C   0  0  0  0  0  0  0  0  0  0  0  0
   23.2778    0.9164   17.1631 C   0  0  0  0  0  0  0  0  0  0  0  0
   22.0497    0.4258   17.6094 C   0  0  0  0  0  0  0  0  0  0  0  0
   21.4342    0.8162   18.7428 N   0  0  0  0  0  0  0  0  0  0  0  0
   22.0861    1.7317   19.4911 C   0  0  0  0  0  0  0  0  0  0  0  0
   23.3255    2.2869   19.1699 C   0  0  0  0  0  0  0  0  0  0  0  0
   23.9452    3.2343   20.0052 C   0  0  0  0  0  0  0  0  0  0  0  0
   25.1870    3.7703   19.6722 C   0  0  0  0  0  0  0  0  0  0  0  0
   25.8220    3.3633   18.5054 C   0  0  0  0  0  0  0  0  0  0  0  0
   25.2129    2.4241   17.6672 C   0  0  0  0  0  0  0  0  0  0  0  0
   23.9496    1.8668   17.9737 C   0  0  0  0  0  0  0  0  0  0  0  0
 10 11  1  0
 11 12  2  0
 12 13  1  0
 13 14  2  0
 14  4  1  0
  4  5  2  0
  5  6  1  0
  6  7  2  0
  7  1  1  0
  1 16  1  0
 16 17  1  0
 17 18  2  0
 18 19  1  0
 19 20  1  0
 19 21  2  0
 21 22  1  0
 22 23  1  0
 22 24  2  0
  1  2  1  0
  2  3  2  0
  2 25  1  0
 25 26  1  0
 26 27  2  0
 27 28  1  0
 28 29  2  0
 29 30  1  0
 30 31  2  0
 31 32  1  0
 32 33  2  0
 33 34  1  0
 34 35  2  0
  7  8  1  0
  8  9  2  0
 14 10  1  0
  9  4  1  0
 24 17  1  0
 35 26  1  0
 35 30  1  0
 10 15  1  0
M  END
> <ScrubInfo>
{"isomerGroup": 4, "isomerId": 1, "confId": 0, "nr_conformers:": 1, "nr_isomers:": 2}

> <minimizedAffinity>
-9.00714

> <CNNscore>
0.6415279508

> <CNNaffinity>
7.0562148094

> <CNN_VS>
4.5267591476

> <CNNaffinity_variance>
0.1917145401

$$$$
Compound_12_i1


 35 39  0  0  0  0  0  0  0  0999 V2000
   27.5142    1.2689   15.6607 N   0  0  0  0  0  0  0  0  0  0  0  0
   27.5304    1.9227   16.9147 C   0  0  0  0  0  0  0  0  0  0  0  0
   28.1406    1.4895   17.8953 O   0  0  0  0  0  0  0  0  0  0  0  0
   29.2145   -2.6596   15.2135 C   0  0  0  0  0  0  0  0  0  0  0  0
   29.7095   -1.5737   14.4860 C   0  0  0  0  0  0  0  0  0  0  0  0
   29.1639   -0.2886   14.6353 C   0  0  0  0  0  0  0  0  0  0  0  0
   28.1046   -0.0435   15.5195 C   0  0  0  0  0  0  0  0  0  0  0  0
   27.6193   -1.1373   16.2499 C   0  0  0  0  0  0  0  0  0  0  0  0
   28.1632   -2.4226   16.1024 C   0  0  0  0  0  0  0  0  0  0  0  0
   30.4403   -4.6965   16.0359 N   0  0  0  0  0  0  0  0  0  0  0  0
   30.8276   -5.9016   15.5256 C   0  0  0  0  0  0  0  0  0  0  0  0
   30.4754   -6.0265   14.2691 N   0  0  0  0  0  0  0  0  0  0  0  0
   29.8365   -4.8527   13.9607 C   0  0  0  0  0  0  0  0  0  0  0  0
   29.7931   -3.9913   15.0443 C   0  0  0  0  0  0  0  0  0  0  0  0
   30.5868   -4.3897   16.9863 H   0  0  0  0  0  0  0  0  0  0  0  0
   26.9081    1.8879   14.4666 C   0  0  0  0  0  0  0  0  0  0  0  0
   25.9546    0.9733   13.7233 C   0  0  0  0  0  0  0  0  0  0  0  0
   25.3621   -0.1330   14.3499 C   0  0  0  0  0  0  0  0  0  0  0  0
   24.5099   -0.9715   13.6347 C   0  0  0  0  0  0  0  0  0  0  0  0
   23.9477   -2.0169   14.2543 F   0  0  0  0  0  0  0  0  0  0  0  0
   24.2353   -0.7461   12.2934 C   0  0  0  0  0  0  0  0  0  0  0  0
   24.8338    0.3358   11.6587 C   0  0  0  0  0  0  0  0  0  0  0  0
   24.5190    0.6306    9.9934 Cl  0  0  0  0  0  0  0  0  0  0  0  0
   25.6919    1.1886   12.3595 C   0  0  0  0  0  0  0  0  0  0  0  0
   26.7482    3.2342   17.0266 C   0  0  0  0  0  0  0  0  0  0  0  0
   25.7546    3.2712   18.1684 C   0  0  0  0  0  0  0  0  0  0  0  0
   26.0207    4.0993   19.2600 C   0  0  0  0  0  0  0  0  0  0  0  0
   25.2362    4.2063   20.3505 N   0  0  0  0  0  0  0  0  0  0  0  0
   24.1077    3.4649   20.3490 C   0  0  0  0  0  0  0  0  0  0  0  0
   23.7149    2.6138   19.3152 C   0  0  0  0  0  0  0  0  0  0  0  0
   22.5190    1.8760   19.3849 C   0  0  0  0  0  0  0  0  0  0  0  0
   22.1391    1.0385   18.3387 C   0  0  0  0  0  0  0  0  0  0  0  0
   22.9471    0.9328   17.2134 C   0  0  0  0  0  0  0  0  0  0  0  0
   24.1390    1.6600   17.1359 C   0  0  0  0  0  0  0  0  0  0  0  0
   24.5560    2.5130   18.1842 C   0  0  0  0  0  0  0  0  0  0  0  0
 10 11  1  0
 11 12  2  0
 12 13  1  0
 13 14  2  0
 14  4  1  0
  4  5  2  0
  5  6  1  0
  6  7  2  0
  7  1  1  0
  1 16  1  0
 16 17  1  0
 17 18  2  0
 18 19  1  0
 19 20  1  0
 19 21  2  0
 21 22  1  0
 22 23  1  0
 22 24  2  0
  1  2  1  0
  2  3  2  0
  2 25  1  0
 25 26  1  0
 26 27  2  0
 27 28  1  0
 28 29  2  0
 29 30  1  0
 30 31  2  0
 31 32  1  0
 32 33  2  0
 33 34  1  0
 34 35  2  0
  7  8  1  0
  8  9  2  0
 14 10  1  0
  9  4  1  0
 24 17  1  0
 35 26  1  0
 35 30  1  0
 10 15  1  0
M  END
> <ScrubInfo>
{"isomerGroup": 4, "isomerId": 1, "confId": 0, "nr_conformers:": 1, "nr_isomers:": 2}

> <minimizedAffinity>
-7.87349

> <CNNscore>
0.4277248681

> <CNNaffinity>
6.8120007515

> <CNN_VS>
2.9136621952

> <CNNaffinity_variance>
0.2540505528

$$$$
Compound_12_i1


 35 39  0  0  0  0  0  0  0  0999 V2000
   26.1236   -0.4025   15.1294 N   0  0  0  0  0  0  0  0  0  0  0  0
   26.5460    0.8514   15.6289 C   0  0  0  0  0  0  0  0  0  0  0  0
   27.6994    1.0760   16.0041 O   0  0  0  0  0  0  0  0  0  0  0  0
   28.7276   -3.8272   15.2508 C   0  0  0  0  0  0  0  0  0  0  0  0
   29.0732   -2.6853   14.5227 C   0  0  0  0  0  0  0  0  0  0  0  0
   28.2311   -1.5624   14.4876 C   0  0  0  0  0  0  0  0  0  0  0  0
   27.0136   -1.5409   15.1815 C   0  0  0  0  0  0  0  0  0  0  0  0
   26.6787   -2.6880   15.9145 C   0  0  0  0  0  0  0  0  0  0  0  0
   27.5189   -3.8115   15.9512 C   0  0  0  0  0  0  0  0  0  0  0  0
   30.6271   -5.2204   14.3684 N   0  0  0  0  0  0  0  0  0  0  0  0
   31.2557   -6.3822   14.7116 C   0  0  0  0  0  0  0  0  0  0  0  0
   30.7201   -6.9203   15.7802 N   0  0  0  0  0  0  0  0  0  0  0  0
   29.7057   -6.0687   16.1366 C   0  0  0  0  0  0  0  0  0  0  0  0
   29.6153   -4.9883   15.2750 C   0  0  0  0  0  0  0  0  0  0  0  0
   30.8805   -4.6254   13.5934 H   0  0  0  0  0  0  0  0  0  0  0  0
   24.7838   -0.5969   14.5433 C   0  0  0  0  0  0  0  0  0  0  0  0
   24.6695   -0.1152   13.1105 C   0  0  0  0  0  0  0  0  0  0  0  0
   24.2931   -0.9818   12.0737 C   0  0  0  0  0  0  0  0  0  0  0  0
   24.2216   -0.5177   10.7621 C   0  0  0  0  0  0  0  0  0  0  0  0
   23.8515   -1.3593    9.7887 F   0  0  0  0  0  0  0  0  0  0  0  0
   24.5292    0.7977   10.4452 C   0  0  0  0  0  0  0  0  0  0  0  0
   24.9228    1.6585   11.4628 C   0  0  0  0  0  0  0  0  0  0  0  0
   25.3206    3.2912   11.0948 Cl  0  0  0  0  0  0  0  0  0  0  0  0
   25.0005    1.2114   12.7852 C   0  0  0  0  0  0  0  0  0  0  0  0
   25.4985    1.9666   15.6876 C   0  0  0  0  0  0  0  0  0  0  0  0
   25.0551    2.3313   17.0886 C   0  0  0  0  0  0  0  0  0  0  0  0
   25.8403    3.2158   17.8297 C   0  0  0  0  0  0  0  0  0  0  0  0
   25.5757    3.6020   19.0933 N   0  0  0  0  0  0  0  0  0  0  0  0
   24.4522    3.0989   19.6483 C   0  0  0  0  0  0  0  0  0  0  0  0
   23.5719    2.2234   19.0112 C   0  0  0  0  0  0  0  0  0  0  0  0
   22.4160    1.7454   19.6553 C   0  0  0  0  0  0  0  0  0  0  0  0
   21.5443    0.8792   18.9995 C   0  0  0  0  0  0  0  0  0  0  0  0
   21.8166    0.4856   17.6953 C   0  0  0  0  0  0  0  0  0  0  0  0
   22.9643    0.9531   17.0474 C   0  0  0  0  0  0  0  0  0  0  0  0
   23.8726    1.8275   17.6885 C   0  0  0  0  0  0  0  0  0  0  0  0
 10 11  1  0
 11 12  2  0
 12 13  1  0
 13 14  2  0
 14  4  1  0
  4  5  2  0
  5  6  1  0
  6  7  2  0
  7  1  1  0
  1 16  1  0
 16 17  1  0
 17 18  2  0
 18 19  1  0
 19 20  1  0
 19 21  2  0
 21 22  1  0
 22 23  1  0
 22 24  2  0
  1  2  1  0
  2  3  2  0
  2 25  1  0
 25 26  1  0
 26 27  2  0
 27 28  1  0
 28 29  2  0
 29 30  1  0
 30 31  2  0
 31 32  1  0
 32 33  2  0
 33 34  1  0
 34 35  2  0
  7  8  1  0
  8  9  2  0
 14 10  1  0
  9  4  1  0
 24 17  1  0
 35 26  1  0
 35 30  1  0
 10 15  1  0
M  END
> <ScrubInfo>
{"isomerGroup": 4, "isomerId": 1, "confId": 0, "nr_conformers:": 1, "nr_isomers:": 2}

> <minimizedAffinity>
-8.98586

> <CNNscore>
0.3914477527

> <CNNaffinity>
6.8962020874

> <CNN_VS>
2.6995027065

> <CNNaffinity_variance>
0.3198803365

$$$$
Compound_12_i1


 35 39  0  0  0  0  0  0  0  0999 V2000
   25.7964   -1.5611   15.2317 N   0  0  0  0  0  0  0  0  0  0  0  0
   25.3595   -2.6667   15.9979 C   0  0  0  0  0  0  0  0  0  0  0  0
   24.7361   -2.5519   17.0561 O   0  0  0  0  0  0  0  0  0  0  0  0
   25.4149    2.4577   16.7244 C   0  0  0  0  0  0  0  0  0  0  0  0
   24.3075    1.7673   16.2239 C   0  0  0  0  0  0  0  0  0  0  0  0
   24.4254    0.4530   15.7443 C   0  0  0  0  0  0  0  0  0  0  0  0
   25.6555   -0.2186   15.7501 C   0  0  0  0  0  0  0  0  0  0  0  0
   26.7591    0.4793   16.2602 C   0  0  0  0  0  0  0  0  0  0  0  0
   26.6436    1.7930   16.7403 C   0  0  0  0  0  0  0  0  0  0  0  0
   25.0050    4.9216   16.4260 N   0  0  0  0  0  0  0  0  0  0  0  0
   24.9244    6.0238   17.2269 C   0  0  0  0  0  0  0  0  0  0  0  0
   25.1236    5.7180   18.4859 N   0  0  0  0  0  0  0  0  0  0  0  0
   25.3415    4.3639   18.4927 C   0  0  0  0  0  0  0  0  0  0  0  0
   25.2746    3.8264   17.2181 C   0  0  0  0  0  0  0  0  0  0  0  0
   24.8671    4.9140   15.4262 H   0  0  0  0  0  0  0  0  0  0  0  0
   26.4001   -1.7281   13.8960 C   0  0  0  0  0  0  0  0  0  0  0  0
   25.7537   -0.8734   12.8237 C   0  0  0  0  0  0  0  0  0  0  0  0
   26.1645    0.4478   12.5930 C   0  0  0  0  0  0  0  0  0  0  0  0
   25.5347    1.2185   11.6182 C   0  0  0  0  0  0  0  0  0  0  0  0
   25.9483    2.4745   11.4079 F   0  0  0  0  0  0  0  0  0  0  0  0
   24.4862    0.7111   10.8642 C   0  0  0  0  0  0  0  0  0  0  0  0
   24.0588   -0.5902   11.0997 C   0  0  0  0  0  0  0  0  0  0  0  0
   22.7534   -1.2392   10.1865 Cl  0  0  0  0  0  0  0  0  0  0  0  0
   24.6782   -1.3793   12.0735 C   0  0  0  0  0  0  0  0  0  0  0  0
   25.6858   -4.0615   15.4571 C   0  0  0  0  0  0  0  0  0  0  0  0
   26.8267   -4.7550   16.1711 C   0  0  0  0  0  0  0  0  0  0  0  0
   26.6546   -5.1237   17.5063 C   0  0  0  0  0  0  0  0  0  0  0  0
   27.5951   -5.7211   18.2642 N   0  0  0  0  0  0  0  0  0  0  0  0
   28.7700   -5.9901   17.6553 C   0  0  0  0  0  0  0  0  0  0  0  0
   29.0639   -5.6926   16.3240 C   0  0  0  0  0  0  0  0  0  0  0  0
   30.3126   -6.0097   15.7584 C   0  0  0  0  0  0  0  0  0  0  0  0
   30.5841   -5.7131   14.4248 C   0  0  0  0  0  0  0  0  0  0  0  0
   29.6115   -5.1012   13.6439 C   0  0  0  0  0  0  0  0  0  0  0  0
   28.3684   -4.7796   14.1976 C   0  0  0  0  0  0  0  0  0  0  0  0
   28.0645   -5.0610   15.5500 C   0  0  0  0  0  0  0  0  0  0  0  0
 10 11  1  0
 11 12  2  0
 12 13  1  0
 13 14  2  0
 14  4  1  0
  4  5  2  0
  5  6  1  0
  6  7  2  0
  7  1  1  0
  1 16  1  0
 16 17  1  0
 17 18  2  0
 18 19  1  0
 19 20  1  0
 19 21  2  0
 21 22  1  0
 22 23  1  0
 22 24  2  0
  1  2  1  0
  2  3  2  0
  2 25  1  0
 25 26  1  0
 26 27  2  0
 27 28  1  0
 28 29  2  0
 29 30  1  0
 30 31  2  0
 31 32  1  0
 32 33  2  0
 33 34  1  0
 34 35  2  0
  7  8  1  0
  8  9  2  0
 14 10  1  0
  9  4  1  0
 24 17  1  0
 35 26  1  0
 35 30  1  0
 10 15  1  0
M  END
> <ScrubInfo>
{"isomerGroup": 4, "isomerId": 1, "confId": 0, "nr_conformers:": 1, "nr_isomers:": 2}

> <minimizedAffinity>
-7.89536

> <CNNscore>
0.3462753296

> <CNNaffinity>
6.6787333488

> <CNN_VS>
2.3126804829

> <CNNaffinity_variance>
0.2270528525

$$$$
Compound_12_i1


 35 39  0  0  0  0  0  0  0  0999 V2000
   25.4215   -2.5598   15.5603 N   0  0  0  0  0  0  0  0  0  0  0  0
   25.6688   -3.7936   16.2061 C   0  0  0  0  0  0  0  0  0  0  0  0
   25.6372   -3.9337   17.4312 O   0  0  0  0  0  0  0  0  0  0  0  0
   24.9697    1.0720   17.8253 C   0  0  0  0  0  0  0  0  0  0  0  0
   23.8864    0.2136   17.6174 C   0  0  0  0  0  0  0  0  0  0  0  0
   24.0312   -0.9767   16.8868 C   0  0  0  0  0  0  0  0  0  0  0  0
   25.2657   -1.3519   16.3397 C   0  0  0  0  0  0  0  0  0  0  0  0
   26.3479   -0.4882   16.5593 C   0  0  0  0  0  0  0  0  0  0  0  0
   26.2056    0.7019   17.2893 C   0  0  0  0  0  0  0  0  0  0  0  0
   24.4828    2.3665   19.9265 N   0  0  0  0  0  0  0  0  0  0  0  0
   24.4280    3.6779   20.3003 C   0  0  0  0  0  0  0  0  0  0  0  0
   24.6892    4.4755   19.2932 N   0  0  0  0  0  0  0  0  0  0  0  0
   24.9203    3.6410   18.2296 C   0  0  0  0  0  0  0  0  0  0  0  0
   24.8008    2.3083   18.5867 C   0  0  0  0  0  0  0  0  0  0  0  0
   24.3360    1.5775   20.5386 H   0  0  0  0  0  0  0  0  0  0  0  0
   25.3116   -2.4564   14.0928 C   0  0  0  0  0  0  0  0  0  0  0  0
   26.1989   -1.3858   13.4890 C   0  0  0  0  0  0  0  0  0  0  0  0
   25.6791   -0.3929   12.6455 C   0  0  0  0  0  0  0  0  0  0  0  0
   26.5226    0.5631   12.0839 C   0  0  0  0  0  0  0  0  0  0  0  0
   26.0047    1.5075   11.2886 F   0  0  0  0  0  0  0  0  0  0  0  0
   27.8882    0.5534   12.3302 C   0  0  0  0  0  0  0  0  0  0  0  0
   28.4152   -0.4387   13.1484 C   0  0  0  0  0  0  0  0  0  0  0  0
   30.1065   -0.4799   13.4603 Cl  0  0  0  0  0  0  0  0  0  0  0  0
   27.5849   -1.4068   13.7213 C   0  0  0  0  0  0  0  0  0  0  0  0
   25.9814   -4.9971   15.3126 C   0  0  0  0  0  0  0  0  0  0  0  0
   27.4408   -5.1271   14.9311 C   0  0  0  0  0  0  0  0  0  0  0  0
   27.8009   -4.9510   13.5941 C   0  0  0  0  0  0  0  0  0  0  0  0
   29.0558   -5.0649   13.1166 N   0  0  0  0  0  0  0  0  0  0  0  0
   30.0159   -5.3479   14.0229 C   0  0  0  0  0  0  0  0  0  0  0  0
   29.7940   -5.5282   15.3888 C   0  0  0  0  0  0  0  0  0  0  0  0
   30.8495   -5.8166   16.2732 C   0  0  0  0  0  0  0  0  0  0  0  0
   30.6095   -5.9840   17.6350 C   0  0  0  0  0  0  0  0  0  0  0  0
   29.3156   -5.8619   18.1260 C   0  0  0  0  0  0  0  0  0  0  0  0
   28.2593   -5.5782   17.2547 C   0  0  0  0  0  0  0  0  0  0  0  0
   28.4692   -5.4098   15.8661 C   0  0  0  0  0  0  0  0  0  0  0  0
 10 11  1  0
 11 12  2  0
 12 13  1  0
 13 14  2  0
 14  4  1  0
  4  5  2  0
  5  6  1  0
  6  7  2  0
  7  1  1  0
  1 16  1  0
 16 17  1  0
 17 18  2  0
 18 19  1  0
 19 20  1  0
 19 21  2  0
 21 22  1  0
 22 23  1  0
 22 24  2  0
  1  2  1  0
  2  3  2  0
  2 25  1  0
 25 26  1  0
 26 27  2  0
 27 28  1  0
 28 29  2  0
 29 30  1  0
 30 31  2  0
 31 32  1  0
 32 33  2  0
 33 34  1  0
 34 35  2  0
  7  8  1  0
  8  9  2  0
 14 10  1  0
  9  4  1  0
 24 17  1  0
 35 26  1  0
 35 30  1  0
 10 15  1  0
M  END
> <ScrubInfo>
{"isomerGroup": 4, "isomerId": 1, "confId": 0, "nr_conformers:": 1, "nr_isomers:": 2}

> <minimizedAffinity>
-7.06355

> <CNNscore>
0.3132092953

> <CNNaffinity>
6.5098724365

> <CNN_VS>
2.0389525890

> <CNNaffinity_variance>
0.1274150759

$$$$
Compound_12_i1


 35 39  0  0  0  0  0  0  0  0999 V2000
   26.2226   -0.7684   15.4330 N   0  0  0  0  0  0  0  0  0  0  0  0
   25.7335   -2.0886   15.5683 C   0  0  0  0  0  0  0  0  0  0  0  0
   24.9298   -2.4257   16.4412 O   0  0  0  0  0  0  0  0  0  0  0  0
   25.2796    2.1502   18.4524 C   0  0  0  0  0  0  0  0  0  0  0  0
   26.5013    2.1846   17.7743 C   0  0  0  0  0  0  0  0  0  0  0  0
   26.8096    1.2400   16.7823 C   0  0  0  0  0  0  0  0  0  0  0  0
   25.9055    0.2281   16.4316 C   0  0  0  0  0  0  0  0  0  0  0  0
   24.6800    0.2059   17.1121 C   0  0  0  0  0  0  0  0  0  0  0  0
   24.3697    1.1490   18.1039 C   0  0  0  0  0  0  0  0  0  0  0  0
   25.5982    4.3642   19.6032 N   0  0  0  0  0  0  0  0  0  0  0  0
   25.0473    5.0270   20.6615 C   0  0  0  0  0  0  0  0  0  0  0  0
   24.1087    4.3158   21.2374 N   0  0  0  0  0  0  0  0  0  0  0  0
   24.0560    3.1485   20.5193 C   0  0  0  0  0  0  0  0  0  0  0  0
   24.9757    3.1404   19.4839 C   0  0  0  0  0  0  0  0  0  0  0  0
   26.3232    4.7250   19.0007 H   0  0  0  0  0  0  0  0  0  0  0  0
   27.0584   -0.3603   14.2879 C   0  0  0  0  0  0  0  0  0  0  0  0
   26.2924    0.3738   13.2051 C   0  0  0  0  0  0  0  0  0  0  0  0
   26.3428    1.7709   13.0906 C   0  0  0  0  0  0  0  0  0  0  0  0
   25.6078    2.4210   12.1017 C   0  0  0  0  0  0  0  0  0  0  0  0
   25.6770    3.7546   12.0041 F   0  0  0  0  0  0  0  0  0  0  0  0
   24.8038    1.7140   11.2190 C   0  0  0  0  0  0  0  0  0  0  0  0
   24.7317    0.3312   11.3377 C   0  0  0  0  0  0  0  0  0  0  0  0
   23.7335   -0.5677   10.2631 Cl  0  0  0  0  0  0  0  0  0  0  0  0
   25.4620   -0.3392   12.3236 C   0  0  0  0  0  0  0  0  0  0  0  0
   26.2401   -3.1256   14.5621 C   0  0  0  0  0  0  0  0  0  0  0  0
   27.5232   -3.8166   14.9727 C   0  0  0  0  0  0  0  0  0  0  0  0
   28.6883   -3.5461   14.2533 C   0  0  0  0  0  0  0  0  0  0  0  0
   29.8876   -4.1108   14.4956 N   0  0  0  0  0  0  0  0  0  0  0  0
   29.9407   -4.9792   15.5282 C   0  0  0  0  0  0  0  0  0  0  0  0
   28.8569   -5.3216   16.3379 C   0  0  0  0  0  0  0  0  0  0  0  0
   28.9927   -6.2331   17.4010 C   0  0  0  0  0  0  0  0  0  0  0  0
   27.9012   -6.5554   18.2041 C   0  0  0  0  0  0  0  0  0  0  0  0
   26.6666   -5.9688   17.9554 C   0  0  0  0  0  0  0  0  0  0  0  0
   26.5208   -5.0638   16.8994 C   0  0  0  0  0  0  0  0  0  0  0  0
   27.6078   -4.7215   16.0616 C   0  0  0  0  0  0  0  0  0  0  0  0
 10 11  1  0
 11 12  2  0
 12 13  1  0
 13 14  2  0
 14  4  1  0
  4  5  2  0
  5  6  1  0
  6  7  2  0
  7  1  1  0
  1 16  1  0
 16 17  1  0
 17 18  2  0
 18 19  1  0
 19 20  1  0
 19 21  2  0
 21 22  1  0
 22 23  1  0
 22 24  2  0
  1  2  1  0
  2  3  2  0
  2 25  1  0
 25 26  1  0
 26 27  2  0
 27 28  1  0
 28 29  2  0
 29 30  1  0
 30 31  2  0
 31 32  1  0
 32 33  2  0
 33 34  1  0
 34 35  2  0
  7  8  1  0
  8  9  2  0
 14 10  1  0
  9  4  1  0
 24 17  1  0
 35 26  1  0
 35 30  1  0
 10 15  1  0
M  END
> <ScrubInfo>
{"isomerGroup": 4, "isomerId": 1, "confId": 0, "nr_conformers:": 1, "nr_isomers:": 2}

> <minimizedAffinity>
-7.98187

> <CNNscore>
0.3098548949

> <CNNaffinity>
6.2890567780

> <CNN_VS>
1.9486950636

> <CNNaffinity_variance>
0.2305266112

$$$$
Compound_12_i1


 35 39  0  0  0  0  0  0  0  0999 V2000
   28.5722   -3.3618   14.9230 N   0  0  0  0  0  0  0  0  0  0  0  0
   29.4602   -2.2657   15.0242 C   0  0  0  0  0  0  0  0  0  0  0  0
   30.3616   -2.2011   15.8638 O   0  0  0  0  0  0  0  0  0  0  0  0
   28.6957   -6.4512   17.9170 C   0  0  0  0  0  0  0  0  0  0  0  0
   27.7677   -5.4090   17.9957 C   0  0  0  0  0  0  0  0  0  0  0  0
   27.7177   -4.4040   17.0165 C   0  0  0  0  0  0  0  0  0  0  0  0
   28.5934   -4.4068   15.9222 C   0  0  0  0  0  0  0  0  0  0  0  0
   29.5160   -5.4597   15.8481 C   0  0  0  0  0  0  0  0  0  0  0  0
   29.5676   -6.4654   16.8256 C   0  0  0  0  0  0  0  0  0  0  0  0
   27.7308   -7.7241   19.8604 N   0  0  0  0  0  0  0  0  0  0  0  0
   28.1024   -8.7749   20.6481 C   0  0  0  0  0  0  0  0  0  0  0  0
   29.2806   -9.2376   20.3069 N   0  0  0  0  0  0  0  0  0  0  0  0
   29.6813   -8.4505   19.2576 C   0  0  0  0  0  0  0  0  0  0  0  0
   28.7350   -7.4884   18.9464 C   0  0  0  0  0  0  0  0  0  0  0  0
   26.8569   -7.2236   19.9275 H   0  0  0  0  0  0  0  0  0  0  0  0
   27.6075   -3.4836   13.8135 C   0  0  0  0  0  0  0  0  0  0  0  0
   26.3621   -2.6381   13.9930 C   0  0  0  0  0  0  0  0  0  0  0  0
   25.6012   -2.2116   12.8945 C   0  0  0  0  0  0  0  0  0  0  0  0
   24.4758   -1.4136   13.0876 C   0  0  0  0  0  0  0  0  0  0  0  0
   23.7583   -1.0248   12.0261 F   0  0  0  0  0  0  0  0  0  0  0  0
   24.0865   -1.0116   14.3574 C   0  0  0  0  0  0  0  0  0  0  0  0
   24.8458   -1.4124   15.4502 C   0  0  0  0  0  0  0  0  0  0  0  0
   24.3912   -0.9182   17.0340 Cl  0  0  0  0  0  0  0  0  0  0  0  0
   25.9785   -2.2135   15.2766 C   0  0  0  0  0  0  0  0  0  0  0  0
   29.2721   -1.1221   14.0236 C   0  0  0  0  0  0  0  0  0  0  0  0
   28.4264    0.0233   14.5389 C   0  0  0  0  0  0  0  0  0  0  0  0
   28.5687    0.4129   15.8716 C   0  0  0  0  0  0  0  0  0  0  0  0
   27.8613    1.3958   16.4628 N   0  0  0  0  0  0  0  0  0  0  0  0
   26.9752    2.0475   15.6796 C   0  0  0  0  0  0  0  0  0  0  0  0
   26.7502    1.7711   14.3304 C   0  0  0  0  0  0  0  0  0  0  0  0
   25.8111    2.4995   13.5775 C   0  0  0  0  0  0  0  0  0  0  0  0
   25.6072    2.2150   12.2293 C   0  0  0  0  0  0  0  0  0  0  0  0
   26.3406    1.2042   11.6205 C   0  0  0  0  0  0  0  0  0  0  0  0
   27.2745    0.4727   12.3610 C   0  0  0  0  0  0  0  0  0  0  0  0
   27.4994    0.7324   13.7330 C   0  0  0  0  0  0  0  0  0  0  0  0
 10 11  1  0
 11 12  2  0
 12 13  1  0
 13 14  2  0
 14  4  1  0
  4  5  2  0
  5  6  1  0
  6  7  2  0
  7  1  1  0
  1 16  1  0
 16 17  1  0
 17 18  2  0
 18 19  1  0
 19 20  1  0
 19 21  2  0
 21 22  1  0
 22 23  1  0
 22 24  2  0
  1  2  1  0
  2  3  2  0
  2 25  1  0
 25 26  1  0
 26 27  2  0
 27 28  1  0
 28 29  2  0
 29 30  1  0
 30 31  2  0
 31 32  1  0
 32 33  2  0
 33 34  1  0
 34 35  2  0
  7  8  1  0
  8  9  2  0
 14 10  1  0
  9  4  1  0
 24 17  1  0
 35 26  1  0
 35 30  1  0
 10 15  1  0
M  END
> <ScrubInfo>
{"isomerGroup": 4, "isomerId": 1, "confId": 0, "nr_conformers:": 1, "nr_isomers:": 2}

> <minimizedAffinity>
-7.98636

> <CNNscore>
0.2984842062

> <CNNaffinity>
6.4548091888

> <CNN_VS>
1.9266586304

> <CNNaffinity_variance>
0.0842465162

$$$$
Compound_12_i1


 35 39  0  0  0  0  0  0  0  0999 V2000
   25.3383   -1.0717   15.4608 N   0  0  0  0  0  0  0  0  0  0  0  0
   25.4415   -0.0225   16.4035 C   0  0  0  0  0  0  0  0  0  0  0  0
   26.4323    0.1497   17.1178 O   0  0  0  0  0  0  0  0  0  0  0  0
   28.4091   -4.0841   15.3215 C   0  0  0  0  0  0  0  0  0  0  0  0
   27.2523   -4.2698   16.0835 C   0  0  0  0  0  0  0  0  0  0  0  0
   26.2438   -3.2938   16.1248 C   0  0  0  0  0  0  0  0  0  0  0  0
   26.3557   -2.0975   15.4033 C   0  0  0  0  0  0  0  0  0  0  0  0
   27.5162   -1.9231   14.6364 C   0  0  0  0  0  0  0  0  0  0  0  0
   28.5255   -2.8973   14.5936 C   0  0  0  0  0  0  0  0  0  0  0  0
   30.4578   -5.1767   14.3536 N   0  0  0  0  0  0  0  0  0  0  0  0
   31.2515   -6.2471   14.6488 C   0  0  0  0  0  0  0  0  0  0  0  0
   30.8269   -6.8799   15.7154 N   0  0  0  0  0  0  0  0  0  0  0  0
   29.7146   -6.1872   16.1205 C   0  0  0  0  0  0  0  0  0  0  0  0
   29.4501   -5.1099   15.2914 C   0  0  0  0  0  0  0  0  0  0  0  0
   30.6036   -4.5341   13.5890 H   0  0  0  0  0  0  0  0  0  0  0  0
   24.2112   -1.1600   14.5130 C   0  0  0  0  0  0  0  0  0  0  0  0
   24.4092   -0.3415   13.2524 C   0  0  0  0  0  0  0  0  0  0  0  0
   24.1664   -0.8830   11.9814 C   0  0  0  0  0  0  0  0  0  0  0  0
   24.3819   -0.1157   10.8388 C   0  0  0  0  0  0  0  0  0  0  0  0
   24.1353   -0.6488    9.6355 F   0  0  0  0  0  0  0  0  0  0  0  0
   24.8496    1.1879   10.9236 C   0  0  0  0  0  0  0  0  0  0  0  0
   25.1124    1.7261   12.1776 C   0  0  0  0  0  0  0  0  0  0  0  0
   25.7039    3.3361   12.3097 Cl  0  0  0  0  0  0  0  0  0  0  0  0
   24.9023    0.9719   13.3360 C   0  0  0  0  0  0  0  0  0  0  0  0
   24.2510    0.9340   16.5143 C   0  0  0  0  0  0  0  0  0  0  0  0
   24.6104    2.3216   17.0022 C   0  0  0  0  0  0  0  0  0  0  0  0
   25.0393    3.2680   16.0702 C   0  0  0  0  0  0  0  0  0  0  0  0
   25.4138    4.5267   16.3724 N   0  0  0  0  0  0  0  0  0  0  0  0
   25.3367    4.8760   17.6744 C   0  0  0  0  0  0  0  0  0  0  0  0
   24.9069    4.0343   18.7011 C   0  0  0  0  0  0  0  0  0  0  0  0
   24.8491    4.4739   20.0364 C   0  0  0  0  0  0  0  0  0  0  0  0
   24.4084    3.6217   21.0463 C   0  0  0  0  0  0  0  0  0  0  0  0
   24.0186    2.3257   20.7320 C   0  0  0  0  0  0  0  0  0  0  0  0
   24.0750    1.8786   19.4083 C   0  0  0  0  0  0  0  0  0  0  0  0
   24.5246    2.7170   18.3616 C   0  0  0  0  0  0  0  0  0  0  0  0
 10 11  1  0
 11 12  2  0
 12 13  1  0
 13 14  2  0
 14  4  1  0
  4  5  2  0
  5  6  1  0
  6  7  2  0
  7  1  1  0
  1 16  1  0
 16 17  1  0
 17 18  2  0
 18 19  1  0
 19 20  1  0
 19 21  2  0
 21 22  1  0
 22 23  1  0
 22 24  2  0
  1  2  1  0
  2  3  2  0
  2 25  1  0
 25 26  1  0
 26 27  2  0
 27 28  1  0
 28 29  2  0
 29 30  1  0
 30 31  2  0
 31 32  1  0
 32 33  2  0
 33 34  1  0
 34 35  2  0
  7  8  1  0
  8  9  2  0
 14 10  1  0
  9  4  1  0
 24 17  1  0
 35 26  1  0
 35 30  1  0
 10 15  1  0
M  END
> <ScrubInfo>
{"isomerGroup": 4, "isomerId": 1, "confId": 0, "nr_conformers:": 1, "nr_isomers:": 2}

> <minimizedAffinity>
-8.82411

> <CNNscore>
0.2937417626

> <CNNaffinity>
6.6987013817

> <CNN_VS>
1.9676883221

> <CNNaffinity_variance>
0.3376668394

$$$$
Compound_1


 33 37  0  0  0  0  0  0  0  0999 V2000
   25.1968   -1.2944   14.8192 N   0  0  0  0  0  0  0  0  0  0  0  0
   24.9060   -0.4163   15.8729 C   0  0  0  0  0  0  0  0  0  0  0  0
   23.8117    0.1455   15.9608 O   0  0  0  0  0  0  0  0  0  0  0  0
   26.2255   -2.2801   14.8747 C   0  0  0  0  0  0  0  0  0  0  0  0
   26.0306   -3.4657   15.5876 C   0  0  0  0  0  0  0  0  0  0  0  0
   27.0413   -4.4326   15.6589 C   0  0  0  0  0  0  0  0  0  0  0  0
   28.2759   -4.2275   15.0316 C   0  0  0  0  0  0  0  0  0  0  0  0
   28.4749   -3.0322   14.3309 C   0  0  0  0  0  0  0  0  0  0  0  0
   27.4623   -2.0674   14.2564 C   0  0  0  0  0  0  0  0  0  0  0  0
   29.3145   -5.2409   15.1117 C   0  0  0  0  0  0  0  0  0  0  0  0
   29.6639   -6.1277   16.1584 C   0  0  0  0  0  0  0  0  0  0  0  0
   30.7025   -6.9091   15.8523 N   0  0  0  0  0  0  0  0  0  0  0  0
   31.0245   -6.5288   14.6066 N   0  0  0  0  0  0  0  0  0  0  0  0
   30.2274   -5.5327   14.1194 C   0  0  0  0  0  0  0  0  0  0  0  0
   31.8042   -6.9901   14.1490 H   0  0  0  0  0  0  0  0  0  0  0  0
   24.1971   -1.4393   13.7466 C   0  0  0  0  0  0  0  0  0  0  0  0
   25.5754    3.3115   12.0280 Cl  0  0  0  0  0  0  0  0  0  0  0  0
   25.0168    1.7095   11.7412 C   0  0  0  0  0  0  0  0  0  0  0  0
   24.7402    1.2995   10.4396 C   0  0  0  0  0  0  0  0  0  0  0  0
   24.2772    0.0057   10.2077 C   0  0  0  0  0  0  0  0  0  0  0  0
   24.1011   -0.8755   11.2769 C   0  0  0  0  0  0  0  0  0  0  0  0
   24.3952   -0.4791   12.5917 C   0  0  0  0  0  0  0  0  0  0  0  0
   24.8432    0.8328   12.8127 C   0  0  0  0  0  0  0  0  0  0  0  0
   26.0382   -0.1126   16.8542 C   0  0  0  0  0  0  0  0  0  0  0  0
   26.0250    1.3191   17.2579 C   0  0  0  0  0  0  0  0  0  0  0  0
   26.6913    2.2955   16.6697 N   0  0  0  0  0  0  0  0  0  0  0  0
   26.4064    3.4709   17.3250 N   0  0  0  0  0  0  0  0  0  0  0  0
   25.5613    3.1964   18.2933 C   0  0  0  0  0  0  0  0  0  0  0  0
   24.9256    4.0034   19.2760 C   0  0  0  0  0  0  0  0  0  0  0  0
   24.0567    3.4394   20.1379 C   0  0  0  0  0  0  0  0  0  0  0  0
   23.7490    2.0176   20.0861 C   0  0  0  0  0  0  0  0  0  0  0  0
   24.3586    1.2507   19.1655 C   0  0  0  0  0  0  0  0  0  0  0  0
   25.2657    1.8402   18.2843 N   0  0  0  0  0  0  0  0  0  0  0  0
 17 18  1  0
 18 19  2  0
 19 20  1  0
 20 21  2  0
 21 22  1  0
 22 16  1  0
 16  1  1  0
  1  2  1  0
  2  3  2  0
  2 24  1  0
 24 25  1  0
 25 26  2  0
 26 27  1  0
 27 28  2  0
 28 29  1  0
 29 30  2  0
 30 31  1  0
 31 32  2  0
 32 33  1  0
  1  4  1  0
  4  5  2  0
  5  6  1  0
  6  7  2  0
  7  8  1  0
  8  9  2  0
  7 10  1  0
 10 11  1  0
 11 12  2  0
 12 13  1  0
 13 14  1  0
 22 23  2  0
 23 18  1  0
 33 25  1  0
  9  4  1  0
 14 10  2  0
 33 28  1  0
 13 15  1  0
M  END
> <ScrubInfo>
{"isomerGroup": 2, "isomerId": 0, "confId": 0, "nr_conformers:": 1, "nr_isomers:": 1}

> <minimizedAffinity>
-8.22839

> <CNNscore>
0.6531872749

> <CNNaffinity>
6.9005455971

> <CNN_VS>
4.5073485374

> <CNNaffinity_variance>
0.0884945169

$$$$
Compound_1


 33 37  0  0  0  0  0  0  0  0999 V2000
   25.4088   -1.1715   15.0073 N   0  0  0  0  0  0  0  0  0  0  0  0
   25.2656   -0.2204   16.0275 C   0  0  0  0  0  0  0  0  0  0  0  0
   24.2048    0.3842   16.2014 O   0  0  0  0  0  0  0  0  0  0  0  0
   26.4088   -2.1877   15.0107 C   0  0  0  0  0  0  0  0  0  0  0  0
   26.1665   -3.4157   15.6313 C   0  0  0  0  0  0  0  0  0  0  0  0
   27.1487   -4.4138   15.6516 C   0  0  0  0  0  0  0  0  0  0  0  0
   28.4016   -4.1993   15.0649 C   0  0  0  0  0  0  0  0  0  0  0  0
   28.6480   -2.9627   14.4571 C   0  0  0  0  0  0  0  0  0  0  0  0
   27.6639   -1.9664   14.4336 C   0  0  0  0  0  0  0  0  0  0  0  0
   29.4103   -5.2453   15.0910 C   0  0  0  0  0  0  0  0  0  0  0  0
   29.7878   -6.1418   16.1195 C   0  0  0  0  0  0  0  0  0  0  0  0
   30.7828   -6.9563   15.7593 N   0  0  0  0  0  0  0  0  0  0  0  0
   31.0484   -6.5876   14.4969 N   0  0  0  0  0  0  0  0  0  0  0  0
   30.2580   -5.5670   14.0513 C   0  0  0  0  0  0  0  0  0  0  0  0
   31.7869   -7.0739   13.9988 H   0  0  0  0  0  0  0  0  0  0  0  0
   24.2889   -1.3465   14.0658 C   0  0  0  0  0  0  0  0  0  0  0  0
   25.4831    3.2079   11.7736 Cl  0  0  0  0  0  0  0  0  0  0  0  0
   24.9488    1.5744   11.6907 C   0  0  0  0  0  0  0  0  0  0  0  0
   24.6247    1.0178   10.4562 C   0  0  0  0  0  0  0  0  0  0  0  0
   24.1814   -0.3017   10.3896 C   0  0  0  0  0  0  0  0  0  0  0  0
   24.0721   -1.0618   11.5562 C   0  0  0  0  0  0  0  0  0  0  0  0
   24.4145   -0.5170   12.8044 C   0  0  0  0  0  0  0  0  0  0  0  0
   24.8421    0.8189   12.8590 C   0  0  0  0  0  0  0  0  0  0  0  0
   26.5110    0.1028   16.8532 C   0  0  0  0  0  0  0  0  0  0  0  0
   27.0874    1.4160   16.4580 C   0  0  0  0  0  0  0  0  0  0  0  0
   26.4665    2.3599   15.7747 N   0  0  0  0  0  0  0  0  0  0  0  0
   27.3260    3.4234   15.6251 N   0  0  0  0  0  0  0  0  0  0  0  0
   28.4520    3.1181   16.2301 C   0  0  0  0  0  0  0  0  0  0  0  0
   29.6746    3.8223   16.4046 C   0  0  0  0  0  0  0  0  0  0  0  0
   30.6682    3.2605   17.1209 C   0  0  0  0  0  0  0  0  0  0  0  0
   30.5196    1.9449   17.7256 C   0  0  0  0  0  0  0  0  0  0  0  0
   29.3688    1.2721   17.5510 C   0  0  0  0  0  0  0  0  0  0  0  0
   28.3492    1.8559   16.7984 N   0  0  0  0  0  0  0  0  0  0  0  0
 17 18  1  0
 18 19  2  0
 19 20  1  0
 20 21  2  0
 21 22  1  0
 22 16  1  0
 16  1  1  0
  1  2  1  0
  2  3  2  0
  2 24  1  0
 24 25  1  0
 25 26  2  0
 26 27  1  0
 27 28  2  0
 28 29  1  0
 29 30  2  0
 30 31  1  0
 31 32  2  0
 32 33  1  0
  1  4  1  0
  4  5  2  0
  5  6  1  0
  6  7  2  0
  7  8  1  0
  8  9  2  0
  7 10  1  0
 10 11  1  0
 11 12  2  0
 12 13  1  0
 13 14  1  0
 22 23  2  0
 23 18  1  0
 33 25  1  0
  9  4  1  0
 14 10  2  0
 33 28  1  0
 13 15  1  0
M  END
> <ScrubInfo>
{"isomerGroup": 2, "isomerId": 0, "confId": 0, "nr_conformers:": 1, "nr_isomers:": 1}

> <minimizedAffinity>
-7.14725

> <CNNscore>
0.5559716225

> <CNNaffinity>
6.6287169456

> <CNN_VS>
3.6853785515

> <CNNaffinity_variance>
0.1071265116

$$$$
Compound_1


 33 37  0  0  0  0  0  0  0  0999 V2000
   25.8085    0.2440   14.5715 N   0  0  0  0  0  0  0  0  0  0  0  0
   24.5160    0.3406   15.1062 C   0  0  0  0  0  0  0  0  0  0  0  0
   23.7248    1.2077   14.7280 O   0  0  0  0  0  0  0  0  0  0  0  0
   26.5992   -0.9410   14.6281 C   0  0  0  0  0  0  0  0  0  0  0  0
   27.6525   -1.0450   15.5400 C   0  0  0  0  0  0  0  0  0  0  0  0
   28.4430   -2.2000   15.5920 C   0  0  0  0  0  0  0  0  0  0  0  0
   28.2071   -3.2705   14.7214 C   0  0  0  0  0  0  0  0  0  0  0  0
   27.1613   -3.1583   13.7979 C   0  0  0  0  0  0  0  0  0  0  0  0
   26.3684   -2.0047   13.7491 C   0  0  0  0  0  0  0  0  0  0  0  0
   29.0337   -4.4641   14.7887 C   0  0  0  0  0  0  0  0  0  0  0  0
   30.0197   -4.9585   13.9013 C   0  0  0  0  0  0  0  0  0  0  0  0
   30.5536   -6.1126   14.3089 N   0  0  0  0  0  0  0  0  0  0  0  0
   29.9140   -6.3643   15.4611 N   0  0  0  0  0  0  0  0  0  0  0  0
   28.9933   -5.4111   15.7910 C   0  0  0  0  0  0  0  0  0  0  0  0
   30.1534   -7.2093   15.9698 H   0  0  0  0  0  0  0  0  0  0  0  0
   26.2423    1.2858   13.6241 C   0  0  0  0  0  0  0  0  0  0  0  0
   25.9432    6.5127   13.7405 Cl  0  0  0  0  0  0  0  0  0  0  0  0
   26.5153    5.0221   14.3819 C   0  0  0  0  0  0  0  0  0  0  0  0
   27.3305    5.0259   15.5108 C   0  0  0  0  0  0  0  0  0  0  0  0
   27.8033    3.8197   16.0243 C   0  0  0  0  0  0  0  0  0  0  0  0
   27.4521    2.6144   15.4123 C   0  0  0  0  0  0  0  0  0  0  0  0
   26.6150    2.5971   14.2849 C   0  0  0  0  0  0  0  0  0  0  0  0
   26.1610    3.8205   13.7674 C   0  0  0  0  0  0  0  0  0  0  0  0
   24.1645   -0.6156   16.2460 C   0  0  0  0  0  0  0  0  0  0  0  0
   23.3822    0.0791   17.3035 C   0  0  0  0  0  0  0  0  0  0  0  0
   22.1226   -0.1610   17.6185 N   0  0  0  0  0  0  0  0  0  0  0  0
   21.7677    0.6735   18.6528 N   0  0  0  0  0  0  0  0  0  0  0  0
   22.8185    1.3997   18.9618 C   0  0  0  0  0  0  0  0  0  0  0  0
   23.0398    2.4092   19.9379 C   0  0  0  0  0  0  0  0  0  0  0  0
   24.2614    2.9666   20.0519 C   0  0  0  0  0  0  0  0  0  0  0  0
   25.3666    2.5571   19.1977 C   0  0  0  0  0  0  0  0  0  0  0  0
   25.1559    1.6116   18.2656 C   0  0  0  0  0  0  0  0  0  0  0  0
   23.8853    1.0477   18.1463 N   0  0  0  0  0  0  0  0  0  0  0  0
 17 18  1  0
 18 19  2  0
 19 20  1  0
 20 21  2  0
 21 22  1  0
 22 16  1  0
 16  1  1  0
  1  2  1  0
  2  3  2  0
  2 24  1  0
 24 25  1  0
 25 26  2  0
 26 27  1  0
 27 28  2  0
 28 29  1  0
 29 30  2  0
 30 31  1  0
 31 32  2  0
 32 33  1  0
  1  4  1  0
  4  5  2  0
  5  6  1  0
  6  7  2  0
  7  8  1  0
  8  9  2  0
  7 10  1  0
 10 11  1  0
 11 12  2  0
 12 13  1  0
 13 14  1  0
 22 23  2  0
 23 18  1  0
 33 25  1  0
  9  4  1  0
 14 10  2  0
 33 28  1  0
 13 15  1  0
M  END
> <ScrubInfo>
{"isomerGroup": 2, "isomerId": 0, "confId": 0, "nr_conformers:": 1, "nr_isomers:": 1}

> <minimizedAffinity>
-7.87380

> <CNNscore>
0.4836492836

> <CNNaffinity>
6.6424922943

> <CNN_VS>
3.2126367092

> <CNNaffinity_variance>
0.0899702534

$$$$
Compound_1


 33 37  0  0  0  0  0  0  0  0999 V2000
   25.9320   -0.4643   15.5189 N   0  0  0  0  0  0  0  0  0  0  0  0
   26.0756    0.5550   16.4708 C   0  0  0  0  0  0  0  0  0  0  0  0
   25.1325    1.2877   16.7785 O   0  0  0  0  0  0  0  0  0  0  0  0
   26.8051   -1.5877   15.4280 C   0  0  0  0  0  0  0  0  0  0  0  0
   27.9845   -1.5078   14.6834 C   0  0  0  0  0  0  0  0  0  0  0  0
   28.8404   -2.6113   14.5773 C   0  0  0  0  0  0  0  0  0  0  0  0
   28.5270   -3.8248   15.2009 C   0  0  0  0  0  0  0  0  0  0  0  0
   27.3372   -3.9077   15.9337 C   0  0  0  0  0  0  0  0  0  0  0  0
   26.4837   -2.8026   16.0429 C   0  0  0  0  0  0  0  0  0  0  0  0
   29.4261   -4.9607   15.0846 C   0  0  0  0  0  0  0  0  0  0  0  0
   29.9371   -5.8413   16.0682 C   0  0  0  0  0  0  0  0  0  0  0  0
   30.7601   -6.7635   15.5627 N   0  0  0  0  0  0  0  0  0  0  0  0
   30.7805   -6.4803   14.2513 N   0  0  0  0  0  0  0  0  0  0  0  0
   30.0024   -5.4099   13.9144 C   0  0  0  0  0  0  0  0  0  0  0  0
   31.3521   -7.0578   13.6432 H   0  0  0  0  0  0  0  0  0  0  0  0
   24.6479   -0.5631   14.8030 C   0  0  0  0  0  0  0  0  0  0  0  0
   23.4834   -1.1648    9.7330 Cl  0  0  0  0  0  0  0  0  0  0  0  0
   24.1874   -0.2661   11.0204 C   0  0  0  0  0  0  0  0  0  0  0  0
   24.8096    0.9501   10.7513 C   0  0  0  0  0  0  0  0  0  0  0  0
   25.3897    1.6732   11.7919 C   0  0  0  0  0  0  0  0  0  0  0  0
   25.3377    1.1816   13.0982 C   0  0  0  0  0  0  0  0  0  0  0  0
   24.6960   -0.0344   13.3841 C   0  0  0  0  0  0  0  0  0  0  0  0
   24.1321   -0.7611   12.3238 C   0  0  0  0  0  0  0  0  0  0  0  0
   27.4768    0.7793   17.0396 C   0  0  0  0  0  0  0  0  0  0  0  0
   27.6431    2.1801   17.5120 C   0  0  0  0  0  0  0  0  0  0  0  0
   27.8488    2.5567   18.7607 N   0  0  0  0  0  0  0  0  0  0  0  0
   27.9653    3.9271   18.7866 N   0  0  0  0  0  0  0  0  0  0  0  0
   27.8426    4.3641   17.5532 C   0  0  0  0  0  0  0  0  0  0  0  0
   27.8819    5.6657   16.9830 C   0  0  0  0  0  0  0  0  0  0  0  0
   27.7602    5.8103   15.6487 C   0  0  0  0  0  0  0  0  0  0  0  0
   27.5910    4.6610   14.7718 C   0  0  0  0  0  0  0  0  0  0  0  0
   27.5410    3.4303   15.3104 C   0  0  0  0  0  0  0  0  0  0  0  0
   27.6562    3.2901   16.6939 N   0  0  0  0  0  0  0  0  0  0  0  0
 17 18  1  0
 18 19  2  0
 19 20  1  0
 20 21  2  0
 21 22  1  0
 22 16  1  0
 16  1  1  0
  1  2  1  0
  2  3  2  0
  2 24  1  0
 24 25  1  0
 25 26  2  0
 26 27  1  0
 27 28  2  0
 28 29  1  0
 29 30  2  0
 30 31  1  0
 31 32  2  0
 32 33  1  0
  1  4  1  0
  4  5  2  0
  5  6  1  0
  6  7  2  0
  7  8  1  0
  8  9  2  0
  7 10  1  0
 10 11  1  0
 11 12  2  0
 12 13  1  0
 13 14  1  0
 22 23  2  0
 23 18  1  0
 33 25  1  0
  9  4  1  0
 14 10  2  0
 33 28  1  0
 13 15  1  0
M  END
> <ScrubInfo>
{"isomerGroup": 2, "isomerId": 0, "confId": 0, "nr_conformers:": 1, "nr_isomers:": 1}

> <minimizedAffinity>
-6.90586

> <CNNscore>
0.4341866374

> <CNNaffinity>
6.4854850769

> <CNN_VS>
2.8159110546

> <CNNaffinity_variance>
0.1567919105

$$$$
Compound_1


 33 37  0  0  0  0  0  0  0  0999 V2000
   24.9405   -1.3692   14.7288 N   0  0  0  0  0  0  0  0  0  0  0  0
   24.3027   -0.7580   15.8176 C   0  0  0  0  0  0  0  0  0  0  0  0
   23.1844   -0.2498   15.7078 O   0  0  0  0  0  0  0  0  0  0  0  0
   25.9907   -2.3239   14.8639 C   0  0  0  0  0  0  0  0  0  0  0  0
   27.2542   -2.0656   14.3265 C   0  0  0  0  0  0  0  0  0  0  0  0
   28.2870   -3.0043   14.4423 C   0  0  0  0  0  0  0  0  0  0  0  0
   28.0740   -4.2297   15.0848 C   0  0  0  0  0  0  0  0  0  0  0  0
   26.8031   -4.4933   15.6090 C   0  0  0  0  0  0  0  0  0  0  0  0
   25.7717   -3.5524   15.4964 C   0  0  0  0  0  0  0  0  0  0  0  0
   29.1560   -5.1931   15.2001 C   0  0  0  0  0  0  0  0  0  0  0  0
   30.1978   -5.5270   14.3017 C   0  0  0  0  0  0  0  0  0  0  0  0
   30.9981   -6.4886   14.7686 N   0  0  0  0  0  0  0  0  0  0  0  0
   30.4748   -6.7760   15.9701 N   0  0  0  0  0  0  0  0  0  0  0  0
   29.3709   -6.0319   16.2741 C   0  0  0  0  0  0  0  0  0  0  0  0
   30.9208   -7.4960   16.5295 H   0  0  0  0  0  0  0  0  0  0  0  0
   24.2873   -1.2843   13.4108 C   0  0  0  0  0  0  0  0  0  0  0  0
   25.9643    3.6765   13.3753 Cl  0  0  0  0  0  0  0  0  0  0  0  0
   25.4104    2.2679   12.5569 C   0  0  0  0  0  0  0  0  0  0  0  0
   25.2843    2.2821   11.1703 C   0  0  0  0  0  0  0  0  0  0  0  0
   24.8251    1.1451   10.5079 C   0  0  0  0  0  0  0  0  0  0  0  0
   24.5023   -0.0037   11.2335 C   0  0  0  0  0  0  0  0  0  0  0  0
   24.6439   -0.0357   12.6304 C   0  0  0  0  0  0  0  0  0  0  0  0
   25.0899    1.1224   13.2863 C   0  0  0  0  0  0  0  0  0  0  0  0
   25.0950   -0.6653   17.1218 C   0  0  0  0  0  0  0  0  0  0  0  0
   24.6167    0.4687   17.9574 C   0  0  0  0  0  0  0  0  0  0  0  0
   23.8000    0.3783   18.9909 N   0  0  0  0  0  0  0  0  0  0  0  0
   23.6109    1.6398   19.5057 N   0  0  0  0  0  0  0  0  0  0  0  0
   24.3247    2.4778   18.7878 C   0  0  0  0  0  0  0  0  0  0  0  0
   24.5194    3.8842   18.8580 C   0  0  0  0  0  0  0  0  0  0  0  0
   25.3590    4.4827   17.9903 C   0  0  0  0  0  0  0  0  0  0  0  0
   26.0772    3.7208   16.9790 C   0  0  0  0  0  0  0  0  0  0  0  0
   25.8846    2.3925   16.9030 C   0  0  0  0  0  0  0  0  0  0  0  0
   25.0049    1.7822   17.7977 N   0  0  0  0  0  0  0  0  0  0  0  0
 17 18  1  0
 18 19  2  0
 19 20  1  0
 20 21  2  0
 21 22  1  0
 22 16  1  0
 16  1  1  0
  1  2  1  0
  2  3  2  0
  2 24  1  0
 24 25  1  0
 25 26  2  0
 26 27  1  0
 27 28  2  0
 28 29  1  0
 29 30  2  0
 30 31  1  0
 31 32  2  0
 32 33  1  0
  1  4  1  0
  4  5  2  0
  5  6  1  0
  6  7  2  0
  7  8  1  0
  8  9  2  0
  7 10  1  0
 10 11  1  0
 11 12  2  0
 12 13  1  0
 13 14  1  0
 22 23  2  0
 23 18  1  0
 33 25  1  0
  9  4  1  0
 14 10  2  0
 33 28  1  0
 13 15  1  0
M  END
> <ScrubInfo>
{"isomerGroup": 2, "isomerId": 0, "confId": 0, "nr_conformers:": 1, "nr_isomers:": 1}

> <minimizedAffinity>
-8.18999

> <CNNscore>
0.4246825576

> <CNNaffinity>
6.5582175255

> <CNN_VS>
2.7851605415

> <CNNaffinity_variance>
0.0640296042

$$$$
Compound_1


 33 37  0  0  0  0  0  0  0  0999 V2000
   24.1660   -0.0698   15.0815 N   0  0  0  0  0  0  0  0  0  0  0  0
   24.4915    1.2737   14.8469 C   0  0  0  0  0  0  0  0  0  0  0  0
   23.8337    2.1924   15.3411 O   0  0  0  0  0  0  0  0  0  0  0  0
   25.0881   -1.1450   14.9192 C   0  0  0  0  0  0  0  0  0  0  0  0
   25.2793   -1.7289   13.6645 C   0  0  0  0  0  0  0  0  0  0  0  0
   26.1726   -2.7949   13.4996 C   0  0  0  0  0  0  0  0  0  0  0  0
   26.8827   -3.3111   14.5900 C   0  0  0  0  0  0  0  0  0  0  0  0
   26.6782   -2.7350   15.8493 C   0  0  0  0  0  0  0  0  0  0  0  0
   25.7879   -1.6663   16.0129 C   0  0  0  0  0  0  0  0  0  0  0  0
   27.8085   -4.4157   14.4034 C   0  0  0  0  0  0  0  0  0  0  0  0
   28.8767   -4.8748   15.2112 C   0  0  0  0  0  0  0  0  0  0  0  0
   29.5130   -5.9238   14.6839 N   0  0  0  0  0  0  0  0  0  0  0  0
   28.8555   -6.1444   13.5353 N   0  0  0  0  0  0  0  0  0  0  0  0
   27.8302   -5.2686   13.3193 C   0  0  0  0  0  0  0  0  0  0  0  0
   29.1638   -6.9092   12.9437 H   0  0  0  0  0  0  0  0  0  0  0  0
   22.9379   -0.3589   15.8427 C   0  0  0  0  0  0  0  0  0  0  0  0
   25.3147    1.8613   19.9470 Cl  0  0  0  0  0  0  0  0  0  0  0  0
   23.8904    1.4307   19.0829 C   0  0  0  0  0  0  0  0  0  0  0  0
   22.6427    1.7708   19.5990 C   0  0  0  0  0  0  0  0  0  0  0  0
   21.4883    1.4127   18.9052 C   0  0  0  0  0  0  0  0  0  0  0  0
   21.5865    0.7238   17.6942 C   0  0  0  0  0  0  0  0  0  0  0  0
   22.8400    0.3925   17.1546 C   0  0  0  0  0  0  0  0  0  0  0  0
   23.9938    0.7432   17.8731 C   0  0  0  0  0  0  0  0  0  0  0  0
   25.6389    1.5490   13.8749 C   0  0  0  0  0  0  0  0  0  0  0  0
   26.1087    2.9559   13.9885 C   0  0  0  0  0  0  0  0  0  0  0  0
   26.8366    3.4520   14.9721 N   0  0  0  0  0  0  0  0  0  0  0  0
   27.0771    4.7800   14.7062 N   0  0  0  0  0  0  0  0  0  0  0  0
   26.5045    5.0703   13.5594 C   0  0  0  0  0  0  0  0  0  0  0  0
   26.4267    6.2670   12.7961 C   0  0  0  0  0  0  0  0  0  0  0  0
   25.7877    6.2577   11.6097 C   0  0  0  0  0  0  0  0  0  0  0  0
   25.1739    5.0461   11.0862 C   0  0  0  0  0  0  0  0  0  0  0  0
   25.2357    3.9165   11.8125 C   0  0  0  0  0  0  0  0  0  0  0  0
   25.8891    3.9373   13.0451 N   0  0  0  0  0  0  0  0  0  0  0  0
 17 18  1  0
 18 19  2  0
 19 20  1  0
 20 21  2  0
 21 22  1  0
 22 16  1  0
 16  1  1  0
  1  2  1  0
  2  3  2  0
  2 24  1  0
 24 25  1  0
 25 26  2  0
 26 27  1  0
 27 28  2  0
 28 29  1  0
 29 30  2  0
 30 31  1  0
 31 32  2  0
 32 33  1  0
  1  4  1  0
  4  5  2  0
  5  6  1  0
  6  7  2  0
  7  8  1  0
  8  9  2  0
  7 10  1  0
 10 11  1  0
 11 12  2  0
 12 13  1  0
 13 14  1  0
 22 23  2  0
 23 18  1  0
 33 25  1  0
  9  4  1  0
 14 10  2  0
 33 28  1  0
 13 15  1  0
M  END
> <ScrubInfo>
{"isomerGroup": 2, "isomerId": 0, "confId": 0, "nr_conformers:": 1, "nr_isomers:": 1}

> <minimizedAffinity>
-9.14357

> <CNNscore>
0.4076026678

> <CNNaffinity>
6.5252914429

> <CNN_VS>
2.6597261429

> <CNNaffinity_variance>
0.5560161471

$$$$
Compound_1


 33 37  0  0  0  0  0  0  0  0999 V2000
   24.5594   -0.2766   15.7708 N   0  0  0  0  0  0  0  0  0  0  0  0
   24.8885    1.0310   15.3864 C   0  0  0  0  0  0  0  0  0  0  0  0
   24.1897    1.9939   15.7113 O   0  0  0  0  0  0  0  0  0  0  0  0
   25.5002   -1.3471   15.8125 C   0  0  0  0  0  0  0  0  0  0  0  0
   26.8367   -1.1012   16.1367 C   0  0  0  0  0  0  0  0  0  0  0  0
   27.7700   -2.1451   16.1658 C   0  0  0  0  0  0  0  0  0  0  0  0
   27.3899   -3.4561   15.8553 C   0  0  0  0  0  0  0  0  0  0  0  0
   26.0537   -3.6980   15.5156 C   0  0  0  0  0  0  0  0  0  0  0  0
   25.1199   -2.6544   15.4907 C   0  0  0  0  0  0  0  0  0  0  0  0
   28.3686   -4.5299   15.8924 C   0  0  0  0  0  0  0  0  0  0  0  0
   28.9669   -5.1997   16.9867 C   0  0  0  0  0  0  0  0  0  0  0  0
   29.8447   -6.1320   16.6081 N   0  0  0  0  0  0  0  0  0  0  0  0
   29.8135   -6.0664   15.2684 N   0  0  0  0  0  0  0  0  0  0  0  0
   28.9497   -5.1227   14.7906 C   0  0  0  0  0  0  0  0  0  0  0  0
   30.4125   -6.6940   14.7418 H   0  0  0  0  0  0  0  0  0  0  0  0
   23.2841   -0.4870   16.4781 C   0  0  0  0  0  0  0  0  0  0  0  0
   25.3775    1.9449   20.6165 Cl  0  0  0  0  0  0  0  0  0  0  0  0
   24.0249    1.5380   19.6339 C   0  0  0  0  0  0  0  0  0  0  0  0
   22.7617    2.0189   19.9681 C   0  0  0  0  0  0  0  0  0  0  0  0
   21.6639    1.6807   19.1789 C   0  0  0  0  0  0  0  0  0  0  0  0
   21.8351    0.8703   18.0544 C   0  0  0  0  0  0  0  0  0  0  0  0
   23.1074    0.3953   17.6969 C   0  0  0  0  0  0  0  0  0  0  0  0
   24.2012    0.7287   18.5110 C   0  0  0  0  0  0  0  0  0  0  0  0
   26.0982    1.1992   14.4670 C   0  0  0  0  0  0  0  0  0  0  0  0
   25.6722    1.5045   13.0747 C   0  0  0  0  0  0  0  0  0  0  0  0
   25.8667    2.6448   12.4381 N   0  0  0  0  0  0  0  0  0  0  0  0
   25.3440    2.5285   11.1710 N   0  0  0  0  0  0  0  0  0  0  0  0
   24.8513    1.3163   11.0494 C   0  0  0  0  0  0  0  0  0  0  0  0
   24.2032    0.6417    9.9789 C   0  0  0  0  0  0  0  0  0  0  0  0
   23.8304   -0.6441   10.1327 C   0  0  0  0  0  0  0  0  0  0  0  0
   24.0780   -1.3643   11.3732 C   0  0  0  0  0  0  0  0  0  0  0  0
   24.6795   -0.7242   12.3910 C   0  0  0  0  0  0  0  0  0  0  0  0
   25.0520    0.6105   12.2277 N   0  0  0  0  0  0  0  0  0  0  0  0
 17 18  1  0
 18 19  2  0
 19 20  1  0
 20 21  2  0
 21 22  1  0
 22 16  1  0
 16  1  1  0
  1  2  1  0
  2  3  2  0
  2 24  1  0
 24 25  1  0
 25 26  2  0
 26 27  1  0
 27 28  2  0
 28 29  1  0
 29 30  2  0
 30 31  1  0
 31 32  2  0
 32 33  1  0
  1  4  1  0
  4  5  2  0
  5  6  1  0
  6  7  2  0
  7  8  1  0
  8  9  2  0
  7 10  1  0
 10 11  1  0
 11 12  2  0
 12 13  1  0
 13 14  1  0
 22 23  2  0
 23 18  1  0
 33 25  1  0
  9  4  1  0
 14 10  2  0
 33 28  1  0
 13 15  1  0
M  END
> <ScrubInfo>
{"isomerGroup": 2, "isomerId": 0, "confId": 0, "nr_conformers:": 1, "nr_isomers:": 1}

> <minimizedAffinity>
-7.85399

> <CNNscore>
0.3729147017

> <CNNaffinity>
6.6751341820

> <CNN_VS>
2.4892556667

> <CNNaffinity_variance>
0.1163635775

$$$$
Compound_1


 33 37  0  0  0  0  0  0  0  0999 V2000
   27.1293   -1.5707   14.6798 N   0  0  0  0  0  0  0  0  0  0  0  0
   26.8467   -2.7349   13.9513 C   0  0  0  0  0  0  0  0  0  0  0  0
   25.7343   -2.9321   13.4568 O   0  0  0  0  0  0  0  0  0  0  0  0
   28.4492   -1.0791   14.9007 C   0  0  0  0  0  0  0  0  0  0  0  0
   28.8919   -0.7999   16.1961 C   0  0  0  0  0  0  0  0  0  0  0  0
   30.1820   -0.3032   16.4203 C   0  0  0  0  0  0  0  0  0  0  0  0
   31.0527   -0.0595   15.3516 C   0  0  0  0  0  0  0  0  0  0  0  0
   30.6020   -0.3251   14.0532 C   0  0  0  0  0  0  0  0  0  0  0  0
   29.3132   -0.8257   13.8298 C   0  0  0  0  0  0  0  0  0  0  0  0
   32.3897    0.4534   15.5995 C   0  0  0  0  0  0  0  0  0  0  0  0
   33.0951    1.5260   15.0029 C   0  0  0  0  0  0  0  0  0  0  0  0
   34.3262    1.6771   15.4975 N   0  0  0  0  0  0  0  0  0  0  0  0
   34.4170    0.7028   16.4155 N   0  0  0  0  0  0  0  0  0  0  0  0
   33.2876   -0.0587   16.5131 C   0  0  0  0  0  0  0  0  0  0  0  0
   35.2829    0.6124   16.9372 H   0  0  0  0  0  0  0  0  0  0  0  0
   26.0211   -0.6358   14.9425 C   0  0  0  0  0  0  0  0  0  0  0  0
   24.4542    0.7119   10.1309 Cl  0  0  0  0  0  0  0  0  0  0  0  0
   25.1498    1.1069   11.6543 C   0  0  0  0  0  0  0  0  0  0  0  0
   25.5655    2.4122   11.9037 C   0  0  0  0  0  0  0  0  0  0  0  0
   26.1390    2.7304   13.1333 C   0  0  0  0  0  0  0  0  0  0  0  0
   26.2866    1.7444   14.1115 C   0  0  0  0  0  0  0  0  0  0  0  0
   25.8533    0.4291   13.8781 C   0  0  0  0  0  0  0  0  0  0  0  0
   25.2943    0.1185   12.6285 C   0  0  0  0  0  0  0  0  0  0  0  0
   27.9491   -3.7915   13.8789 C   0  0  0  0  0  0  0  0  0  0  0  0
   28.2396   -4.3529   15.2256 C   0  0  0  0  0  0  0  0  0  0  0  0
   29.4162   -4.3581   15.8248 N   0  0  0  0  0  0  0  0  0  0  0  0
   29.2719   -4.9499   17.0581 N   0  0  0  0  0  0  0  0  0  0  0  0
   28.0087   -5.2842   17.1981 C   0  0  0  0  0  0  0  0  0  0  0  0
   27.2881   -5.9115   18.2508 C   0  0  0  0  0  0  0  0  0  0  0  0
   25.9592   -6.0977   18.1272 C   0  0  0  0  0  0  0  0  0  0  0  0
   25.2387   -5.6683   16.9375 C   0  0  0  0  0  0  0  0  0  0  0  0
   25.9205   -5.0862   15.9357 C   0  0  0  0  0  0  0  0  0  0  0  0
   27.2981   -4.9075   16.0667 N   0  0  0  0  0  0  0  0  0  0  0  0
 17 18  1  0
 18 19  2  0
 19 20  1  0
 20 21  2  0
 21 22  1  0
 22 16  1  0
 16  1  1  0
  1  2  1  0
  2  3  2  0
  2 24  1  0
 24 25  1  0
 25 26  2  0
 26 27  1  0
 27 28  2  0
 28 29  1  0
 29 30  2  0
 30 31  1  0
 31 32  2  0
 32 33  1  0
  1  4  1  0
  4  5  2  0
  5  6  1  0
  6  7  2  0
  7  8  1  0
  8  9  2  0
  7 10  1  0
 10 11  1  0
 11 12  2  0
 12 13  1  0
 13 14  1  0
 22 23  2  0
 23 18  1  0
 33 25  1  0
  9  4  1  0
 14 10  2  0
 33 28  1  0
 13 15  1  0
M  END
> <ScrubInfo>
{"isomerGroup": 2, "isomerId": 0, "confId": 0, "nr_conformers:": 1, "nr_isomers:": 1}

> <minimizedAffinity>
-6.46708

> <CNNscore>
0.3705578744

> <CNNaffinity>
6.1708683968

> <CNN_VS>
2.2866637707

> <CNNaffinity_variance>
0.1737170368

$$$$
Compound_1


 33 37  0  0  0  0  0  0  0  0999 V2000
   26.9213   -1.3930   14.7912 N   0  0  0  0  0  0  0  0  0  0  0  0
   27.9230   -0.6385   14.1643 C   0  0  0  0  0  0  0  0  0  0  0  0
   28.5530   -1.0781   13.1995 O   0  0  0  0  0  0  0  0  0  0  0  0
   25.8899   -0.8230   15.5937 C   0  0  0  0  0  0  0  0  0  0  0  0
   24.5693   -0.8035   15.1382 C   0  0  0  0  0  0  0  0  0  0  0  0
   23.5527   -0.2326   15.9141 C   0  0  0  0  0  0  0  0  0  0  0  0
   23.8377    0.3462   17.1565 C   0  0  0  0  0  0  0  0  0  0  0  0
   25.1638    0.3397   17.6043 C   0  0  0  0  0  0  0  0  0  0  0  0
   26.1795   -0.2351   16.8298 C   0  0  0  0  0  0  0  0  0  0  0  0
   22.7721    0.9325   17.9522 C   0  0  0  0  0  0  0  0  0  0  0  0
   21.3787    1.0151   17.7160 C   0  0  0  0  0  0  0  0  0  0  0  0
   20.7240    1.6542   18.6887 N   0  0  0  0  0  0  0  0  0  0  0  0
   21.6939    1.9840   19.5552 N   0  0  0  0  0  0  0  0  0  0  0  0
   22.9366    1.5784   19.1600 C   0  0  0  0  0  0  0  0  0  0  0  0
   21.4362    2.4907   20.3960 H   0  0  0  0  0  0  0  0  0  0  0  0
   26.7195   -2.7811   14.3401 C   0  0  0  0  0  0  0  0  0  0  0  0
   30.8347   -6.0170   14.4711 Cl  0  0  0  0  0  0  0  0  0  0  0  0
   29.4441   -5.3182   15.2050 C   0  0  0  0  0  0  0  0  0  0  0  0
   29.0836   -5.6959   16.4958 C   0  0  0  0  0  0  0  0  0  0  0  0
   27.9512   -5.1385   17.0867 C   0  0  0  0  0  0  0  0  0  0  0  0
   27.1890   -4.1995   16.3880 C   0  0  0  0  0  0  0  0  0  0  0  0
   27.5540   -3.7968   15.0931 C   0  0  0  0  0  0  0  0  0  0  0  0
   28.6864   -4.3800   14.5032 C   0  0  0  0  0  0  0  0  0  0  0  0
   28.2650    0.7141   14.7892 C   0  0  0  0  0  0  0  0  0  0  0  0
   27.2837    1.7546   14.3801 C   0  0  0  0  0  0  0  0  0  0  0  0
   26.9998    2.8569   15.0492 N   0  0  0  0  0  0  0  0  0  0  0  0
   26.0584    3.5649   14.3389 N   0  0  0  0  0  0  0  0  0  0  0  0
   25.7923    2.8914   13.2422 C   0  0  0  0  0  0  0  0  0  0  0  0
   24.9179    3.1364   12.1484 C   0  0  0  0  0  0  0  0  0  0  0  0
   24.8806    2.2663   11.1200 C   0  0  0  0  0  0  0  0  0  0  0  0
   25.7194    1.0768   11.0998 C   0  0  0  0  0  0  0  0  0  0  0  0
   26.5377    0.8370   12.1391 C   0  0  0  0  0  0  0  0  0  0  0  0
   26.5619    1.7368   13.2052 N   0  0  0  0  0  0  0  0  0  0  0  0
 17 18  1  0
 18 19  2  0
 19 20  1  0
 20 21  2  0
 21 22  1  0
 22 16  1  0
 16  1  1  0
  1  2  1  0
  2  3  2  0
  2 24  1  0
 24 25  1  0
 25 26  2  0
 26 27  1  0
 27 28  2  0
 28 29  1  0
 29 30  2  0
 30 31  1  0
 31 32  2  0
 32 33  1  0
  1  4  1  0
  4  5  2  0
  5  6  1  0
  6  7  2  0
  7  8  1  0
  8  9  2  0
  7 10  1  0
 10 11  1  0
 11 12  2  0
 12 13  1  0
 13 14  1  0
 22 23  2  0
 23 18  1  0
 33 25  1  0
  9  4  1  0
 14 10  2  0
 33 28  1  0
 13 15  1  0
M  END
> <ScrubInfo>
{"isomerGroup": 2, "isomerId": 0, "confId": 0, "nr_conformers:": 1, "nr_isomers:": 1}

> <minimizedAffinity>
-7.74536

> <CNNscore>
0.3572101295

> <CNNaffinity>
6.4220709801

> <CNN_VS>
2.2940287590

> <CNNaffinity_variance>
0.3047923148

$$$$
Compound_4


 33 37  0  0  0  0  0  0  0  0999 V2000
   26.0997    0.4285   15.2962 N   0  0  0  0  0  0  0  0  0  0  0  0
   24.7337    0.4551   15.5873 C   0  0  0  0  0  0  0  0  0  0  0  0
   23.9892    1.3522   15.1788 O   0  0  0  0  0  0  0  0  0  0  0  0
   26.8575   -0.7761   15.1637 C   0  0  0  0  0  0  0  0  0  0  0  0
   26.6632   -1.6355   14.0780 C   0  0  0  0  0  0  0  0  0  0  0  0
   27.3911   -2.8275   13.9622 C   0  0  0  0  0  0  0  0  0  0  0  0
   28.3242   -3.1959   14.9372 C   0  0  0  0  0  0  0  0  0  0  0  0
   28.5065   -2.3485   16.0352 C   0  0  0  0  0  0  0  0  0  0  0  0
   27.7799   -1.1559   16.1483 C   0  0  0  0  0  0  0  0  0  0  0  0
   29.0678   -4.4374   14.8080 C   0  0  0  0  0  0  0  0  0  0  0  0
   29.3407   -5.4557   15.7525 C   0  0  0  0  0  0  0  0  0  0  0  0
   30.0551   -6.4610   15.2399 N   0  0  0  0  0  0  0  0  0  0  0  0
   30.2394   -6.0950   13.9623 N   0  0  0  0  0  0  0  0  0  0  0  0
   29.6690   -4.8933   13.6531 C   0  0  0  0  0  0  0  0  0  0  0  0
   30.7627   -6.7171   13.3546 H   0  0  0  0  0  0  0  0  0  0  0  0
   26.7137    1.6832   14.8352 C   0  0  0  0  0  0  0  0  0  0  0  0
   24.6620    0.6717   10.1353 Cl  0  0  0  0  0  0  0  0  0  0  0  0
   25.1527    1.7860   11.3516 C   0  0  0  0  0  0  0  0  0  0  0  0
   25.0024    3.1534   11.1380 C   0  0  0  0  0  0  0  0  0  0  0  0
   25.3948    4.0515   12.1286 C   0  0  0  0  0  0  0  0  0  0  0  0
   25.9416    3.5798   13.3242 C   0  0  0  0  0  0  0  0  0  0  0  0
   26.1192    2.2043   13.5413 C   0  0  0  0  0  0  0  0  0  0  0  0
   25.7004    1.3092   12.5437 C   0  0  0  0  0  0  0  0  0  0  0  0
   24.1945   -0.6074   16.5508 C   0  0  0  0  0  0  0  0  0  0  0  0
   23.3581    0.0510   17.5991 C   0  0  0  0  0  0  0  0  0  0  0  0
   22.0287   -0.1404   17.9205 C   0  0  0  0  0  0  0  0  0  0  0  0
   21.6408    0.6639   18.9567 N   0  0  0  0  0  0  0  0  0  0  0  0
   22.7144    1.3507   19.2838 C   0  0  0  0  0  0  0  0  0  0  0  0
   22.9180    2.3434   20.2844 C   0  0  0  0  0  0  0  0  0  0  0  0
   24.1316    2.9087   20.4310 C   0  0  0  0  0  0  0  0  0  0  0  0
   25.2532    2.5248   19.5896 C   0  0  0  0  0  0  0  0  0  0  0  0
   25.0677    1.5907   18.6414 C   0  0  0  0  0  0  0  0  0  0  0  0
   23.8074    1.0097   18.4871 N   0  0  0  0  0  0  0  0  0  0  0  0
 17 18  1  0
 18 19  2  0
 19 20  1  0
 20 21  2  0
 21 22  1  0
 22 16  1  0
 16  1  1  0
  1  2  1  0
  2  3  2  0
  2 24  1  0
 24 25  1  0
 25 26  2  0
 26 27  1  0
 27 28  2  0
 28 29  1  0
 29 30  2  0
 30 31  1  0
 31 32  2  0
 32 33  1  0
  1  4  1  0
  4  5  2  0
  5  6  1  0
  6  7  2  0
  7  8  1  0
  8  9  2  0
  7 10  1  0
 10 11  1  0
 11 12  2  0
 12 13  1  0
 13 14  1  0
 22 23  2  0
 23 18  1  0
 33 25  1  0
  9  4  1  0
 14 10  2  0
 33 28  1  0
 13 15  1  0
M  END
> <ScrubInfo>
{"isomerGroup": 1, "isomerId": 0, "confId": 0, "nr_conformers:": 1, "nr_isomers:": 1}

> <minimizedAffinity>
-8.60905

> <CNNscore>
0.8917837143

> <CNNaffinity>
7.0573248863

> <CNN_VS>
6.2936072350

> <CNNaffinity_variance>
0.1341991425

$$$$
Compound_4


 33 37  0  0  0  0  0  0  0  0999 V2000
   25.9828    0.2240   15.3228 N   0  0  0  0  0  0  0  0  0  0  0  0
   24.6217    0.2592   15.6356 C   0  0  0  0  0  0  0  0  0  0  0  0
   23.8644    1.1271   15.1895 O   0  0  0  0  0  0  0  0  0  0  0  0
   26.7464   -0.9819   15.2463 C   0  0  0  0  0  0  0  0  0  0  0  0
   27.9199   -1.1417   15.9897 C   0  0  0  0  0  0  0  0  0  0  0  0
   28.6792   -2.3158   15.8955 C   0  0  0  0  0  0  0  0  0  0  0  0
   28.2895   -3.3559   15.0452 C   0  0  0  0  0  0  0  0  0  0  0  0
   27.1270   -3.1913   14.2847 C   0  0  0  0  0  0  0  0  0  0  0  0
   26.3675   -2.0179   14.3817 C   0  0  0  0  0  0  0  0  0  0  0  0
   29.0891   -4.5655   14.9525 C   0  0  0  0  0  0  0  0  0  0  0  0
   29.3053   -5.6063   15.8872 C   0  0  0  0  0  0  0  0  0  0  0  0
   30.1050   -6.5675   15.4178 N   0  0  0  0  0  0  0  0  0  0  0  0
   30.4014   -6.1506   14.1774 N   0  0  0  0  0  0  0  0  0  0  0  0
   29.8192   -4.9594   13.8503 C   0  0  0  0  0  0  0  0  0  0  0  0
   31.0059   -6.7324   13.6062 H   0  0  0  0  0  0  0  0  0  0  0  0
   26.5803    1.4537   14.7805 C   0  0  0  0  0  0  0  0  0  0  0  0
   24.8247    5.1452   11.5229 Cl  0  0  0  0  0  0  0  0  0  0  0  0
   25.2349    3.5072   11.8555 C   0  0  0  0  0  0  0  0  0  0  0  0
   25.0751    2.5399   10.8672 C   0  0  0  0  0  0  0  0  0  0  0  0
   25.4151    1.2162   11.1391 C   0  0  0  0  0  0  0  0  0  0  0  0
   25.9062    0.8641   12.3983 C   0  0  0  0  0  0  0  0  0  0  0  0
   26.0498    1.8269   13.4099 C   0  0  0  0  0  0  0  0  0  0  0  0
   25.7234    3.1607   13.1163 C   0  0  0  0  0  0  0  0  0  0  0  0
   24.1062   -0.7496   16.6673 C   0  0  0  0  0  0  0  0  0  0  0  0
   23.2928   -0.0355   17.6971 C   0  0  0  0  0  0  0  0  0  0  0  0
   21.9671   -0.1991   18.0480 C   0  0  0  0  0  0  0  0  0  0  0  0
   21.6033    0.6558   19.0518 N   0  0  0  0  0  0  0  0  0  0  0  0
   22.6880    1.3467   19.3298 C   0  0  0  0  0  0  0  0  0  0  0  0
   22.9166    2.3825   20.2800 C   0  0  0  0  0  0  0  0  0  0  0  0
   24.1374    2.9423   20.3811 C   0  0  0  0  0  0  0  0  0  0  0  0
   25.2417    2.5092   19.5407 C   0  0  0  0  0  0  0  0  0  0  0  0
   25.0326    1.5342   18.6398 C   0  0  0  0  0  0  0  0  0  0  0  0
   23.7649    0.9588   18.5325 N   0  0  0  0  0  0  0  0  0  0  0  0
 17 18  1  0
 18 19  2  0
 19 20  1  0
 20 21  2  0
 21 22  1  0
 22 16  1  0
 16  1  1  0
  1  2  1  0
  2  3  2  0
  2 24  1  0
 24 25  1  0
 25 26  2  0
 26 27  1  0
 27 28  2  0
 28 29  1  0
 29 30  2  0
 30 31  1  0
 31 32  2  0
 32 33  1  0
  1  4  1  0
  4  5  2  0
  5  6  1  0
  6  7  2  0
  7  8  1  0
  8  9  2  0
  7 10  1  0
 10 11  1  0
 11 12  2  0
 12 13  1  0
 13 14  1  0
 22 23  2  0
 23 18  1  0
 33 25  1  0
  9  4  1  0
 14 10  2  0
 33 28  1  0
 13 15  1  0
M  END
> <ScrubInfo>
{"isomerGroup": 1, "isomerId": 0, "confId": 0, "nr_conformers:": 1, "nr_isomers:": 1}

> <minimizedAffinity>
-8.44878

> <CNNscore>
0.7879524231

> <CNNaffinity>
6.7759704590

> <CNN_VS>
5.3391423225

> <CNNaffinity_variance>
0.2241508514

$$$$
Compound_4


 33 37  0  0  0  0  0  0  0  0999 V2000
   26.1580   -1.1074   15.2703 N   0  0  0  0  0  0  0  0  0  0  0  0
   25.6468   -2.4075   15.2671 C   0  0  0  0  0  0  0  0  0  0  0  0
   24.5506   -2.6843   14.7695 O   0  0  0  0  0  0  0  0  0  0  0  0
   27.5544   -0.8058   15.2233 C   0  0  0  0  0  0  0  0  0  0  0  0
   28.2272   -0.3238   16.3503 C   0  0  0  0  0  0  0  0  0  0  0  0
   29.5912   -0.0070   16.2955 C   0  0  0  0  0  0  0  0  0  0  0  0
   30.3146   -0.1535   15.1071 C   0  0  0  0  0  0  0  0  0  0  0  0
   29.6401   -0.6162   13.9723 C   0  0  0  0  0  0  0  0  0  0  0  0
   28.2769   -0.9348   14.0292 C   0  0  0  0  0  0  0  0  0  0  0  0
   31.7270    0.1842   15.0625 C   0  0  0  0  0  0  0  0  0  0  0  0
   32.5528    0.5705   13.9797 C   0  0  0  0  0  0  0  0  0  0  0  0
   33.8128    0.8148   14.3494 N   0  0  0  0  0  0  0  0  0  0  0  0
   33.8001    0.5917   15.6724 N   0  0  0  0  0  0  0  0  0  0  0  0
   32.5775    0.2125   16.1483 C   0  0  0  0  0  0  0  0  0  0  0  0
   34.6633    0.7213   16.1901 H   0  0  0  0  0  0  0  0  0  0  0  0
   25.2076   -0.0104   15.0318 C   0  0  0  0  0  0  0  0  0  0  0  0
   23.5720   -0.8909   10.1461 Cl  0  0  0  0  0  0  0  0  0  0  0  0
   24.4102    0.0744   11.2982 C   0  0  0  0  0  0  0  0  0  0  0  0
   25.0318    1.2520   10.8925 C   0  0  0  0  0  0  0  0  0  0  0  0
   25.7034    2.0338   11.8303 C   0  0  0  0  0  0  0  0  0  0  0  0
   25.7567    1.6320   13.1670 C   0  0  0  0  0  0  0  0  0  0  0  0
   25.1533    0.4348   13.5834 C   0  0  0  0  0  0  0  0  0  0  0  0
   24.4620   -0.3330   12.6324 C   0  0  0  0  0  0  0  0  0  0  0  0
   26.4367   -3.4805   16.0238 C   0  0  0  0  0  0  0  0  0  0  0  0
   27.3773   -4.1608   15.0834 C   0  0  0  0  0  0  0  0  0  0  0  0
   27.2729   -4.3675   13.7218 C   0  0  0  0  0  0  0  0  0  0  0  0
   28.3611   -5.0339   13.2293 N   0  0  0  0  0  0  0  0  0  0  0  0
   29.1409   -5.2414   14.2686 C   0  0  0  0  0  0  0  0  0  0  0  0
   30.4046   -5.8897   14.3723 C   0  0  0  0  0  0  0  0  0  0  0  0
   31.0191   -5.9738   15.5679 C   0  0  0  0  0  0  0  0  0  0  0  0
   30.4229   -5.4098   16.7677 C   0  0  0  0  0  0  0  0  0  0  0  0
   29.2292   -4.7990   16.6779 C   0  0  0  0  0  0  0  0  0  0  0  0
   28.5910   -4.7176   15.4387 N   0  0  0  0  0  0  0  0  0  0  0  0
 17 18  1  0
 18 19  2  0
 19 20  1  0
 20 21  2  0
 21 22  1  0
 22 16  1  0
 16  1  1  0
  1  2  1  0
  2  3  2  0
  2 24  1  0
 24 25  1  0
 25 26  2  0
 26 27  1  0
 27 28  2  0
 28 29  1  0
 29 30  2  0
 30 31  1  0
 31 32  2  0
 32 33  1  0
  1  4  1  0
  4  5  2  0
  5  6  1  0
  6  7  2  0
  7  8  1  0
  8  9  2  0
  7 10  1  0
 10 11  1  0
 11 12  2  0
 12 13  1  0
 13 14  1  0
 22 23  2  0
 23 18  1  0
 33 25  1  0
  9  4  1  0
 14 10  2  0
 33 28  1  0
 13 15  1  0
M  END
> <ScrubInfo>
{"isomerGroup": 1, "isomerId": 0, "confId": 0, "nr_conformers:": 1, "nr_isomers:": 1}

> <minimizedAffinity>
-6.74384

> <CNNscore>
0.7183958888

> <CNNaffinity>
6.7946972847

> <CNN_VS>
4.8812828064

> <CNNaffinity_variance>
0.1151727065

$$$$
Compound_4


 33 37  0  0  0  0  0  0  0  0999 V2000
   27.9045   -0.2791   15.3361 N   0  0  0  0  0  0  0  0  0  0  0  0
   28.9014   -1.0741   15.9067 C   0  0  0  0  0  0  0  0  0  0  0  0
   30.0926   -0.9600   15.6001 O   0  0  0  0  0  0  0  0  0  0  0  0
   26.7084    0.1024   16.0194 C   0  0  0  0  0  0  0  0  0  0  0  0
   26.7218    1.1062   16.9926 C   0  0  0  0  0  0  0  0  0  0  0  0
   25.5523    1.4626   17.6776 C   0  0  0  0  0  0  0  0  0  0  0  0
   24.3409    0.8145   17.4142 C   0  0  0  0  0  0  0  0  0  0  0  0
   24.3279   -0.2042   16.4556 C   0  0  0  0  0  0  0  0  0  0  0  0
   25.4975   -0.5578   15.7699 C   0  0  0  0  0  0  0  0  0  0  0  0
   23.1370    1.1897   18.1358 C   0  0  0  0  0  0  0  0  0  0  0  0
   21.7733    0.9289   17.8603 C   0  0  0  0  0  0  0  0  0  0  0  0
   20.9512    1.4361   18.7827 N   0  0  0  0  0  0  0  0  0  0  0  0
   21.7841    2.0203   19.6575 N   0  0  0  0  0  0  0  0  0  0  0  0
   23.1012    1.9015   19.3170 C   0  0  0  0  0  0  0  0  0  0  0  0
   21.3838    2.4802   20.4689 H   0  0  0  0  0  0  0  0  0  0  0  0
   28.2346    0.4175   14.0834 C   0  0  0  0  0  0  0  0  0  0  0  0
   24.2156   -0.0378   10.7725 Cl  0  0  0  0  0  0  0  0  0  0  0  0
   25.1450    0.8858   11.8884 C   0  0  0  0  0  0  0  0  0  0  0  0
   24.7873    2.2028   12.1629 C   0  0  0  0  0  0  0  0  0  0  0  0
   25.5389    2.9444   13.0723 C   0  0  0  0  0  0  0  0  0  0  0  0
   26.6476    2.3693   13.6974 C   0  0  0  0  0  0  0  0  0  0  0  0
   27.0314    1.0496   13.4111 C   0  0  0  0  0  0  0  0  0  0  0  0
   26.2533    0.3066   12.5087 C   0  0  0  0  0  0  0  0  0  0  0  0
   28.4575   -2.1999   16.8466 C   0  0  0  0  0  0  0  0  0  0  0  0
   27.7384   -3.2480   16.0616 C   0  0  0  0  0  0  0  0  0  0  0  0
   26.4372   -3.6982   16.1694 C   0  0  0  0  0  0  0  0  0  0  0  0
   26.1651   -4.6749   15.2513 N   0  0  0  0  0  0  0  0  0  0  0  0
   27.2814   -4.8349   14.5733 C   0  0  0  0  0  0  0  0  0  0  0  0
   27.6028   -5.7124   13.4987 C   0  0  0  0  0  0  0  0  0  0  0  0
   28.8359   -5.6862   12.9575 C   0  0  0  0  0  0  0  0  0  0  0  0
   29.8573   -4.7727   13.4427 C   0  0  0  0  0  0  0  0  0  0  0  0
   29.5620   -3.9438   14.4584 C   0  0  0  0  0  0  0  0  0  0  0  0
   28.2848   -3.9761   15.0219 N   0  0  0  0  0  0  0  0  0  0  0  0
 17 18  1  0
 18 19  2  0
 19 20  1  0
 20 21  2  0
 21 22  1  0
 22 16  1  0
 16  1  1  0
  1  2  1  0
  2  3  2  0
  2 24  1  0
 24 25  1  0
 25 26  2  0
 26 27  1  0
 27 28  2  0
 28 29  1  0
 29 30  2  0
 30 31  1  0
 31 32  2  0
 32 33  1  0
  1  4  1  0
  4  5  2  0
  5  6  1  0
  6  7  2  0
  7  8  1  0
  8  9  2  0
  7 10  1  0
 10 11  1  0
 11 12  2  0
 12 13  1  0
 13 14  1  0
 22 23  2  0
 23 18  1  0
 33 25  1  0
  9  4  1  0
 14 10  2  0
 33 28  1  0
 13 15  1  0
M  END
> <ScrubInfo>
{"isomerGroup": 1, "isomerId": 0, "confId": 0, "nr_conformers:": 1, "nr_isomers:": 1}

> <minimizedAffinity>
-7.88634

> <CNNscore>
0.7134542465

> <CNNaffinity>
6.9881730080

> <CNN_VS>
4.9857416153

> <CNNaffinity_variance>
0.2301211953

$$$$
Compound_4


 33 37  0  0  0  0  0  0  0  0999 V2000
   27.5028   -0.9519   14.5474 N   0  0  0  0  0  0  0  0  0  0  0  0
   28.2520   -2.1274   14.6396 C   0  0  0  0  0  0  0  0  0  0  0  0
   29.4493   -2.1721   14.3390 O   0  0  0  0  0  0  0  0  0  0  0  0
   26.4010   -0.6463   15.4050 C   0  0  0  0  0  0  0  0  0  0  0  0
   25.1090   -1.0901   15.1064 C   0  0  0  0  0  0  0  0  0  0  0  0
   24.0264   -0.7699   15.9366 C   0  0  0  0  0  0  0  0  0  0  0  0
   24.2073    0.0136   17.0814 C   0  0  0  0  0  0  0  0  0  0  0  0
   25.4950    0.4764   17.3722 C   0  0  0  0  0  0  0  0  0  0  0  0
   26.5769    0.1533   16.5426 C   0  0  0  0  0  0  0  0  0  0  0  0
   23.0752    0.3433   17.9303 C   0  0  0  0  0  0  0  0  0  0  0  0
   22.8329    1.4679   18.7550 C   0  0  0  0  0  0  0  0  0  0  0  0
   21.6518    1.4113   19.3759 N   0  0  0  0  0  0  0  0  0  0  0  0
   21.1282    0.2524   18.9482 N   0  0  0  0  0  0  0  0  0  0  0  0
   21.9390   -0.4242   18.0825 C   0  0  0  0  0  0  0  0  0  0  0  0
   20.2088   -0.0135   19.2862 H   0  0  0  0  0  0  0  0  0  0  0  0
   28.0501    0.1310   13.7160 C   0  0  0  0  0  0  0  0  0  0  0  0
   24.4097    0.6330    9.9989 Cl  0  0  0  0  0  0  0  0  0  0  0  0
   25.2739    1.2592   11.3491 C   0  0  0  0  0  0  0  0  0  0  0  0
   24.9882    2.5375   11.8206 C   0  0  0  0  0  0  0  0  0  0  0  0
   25.6857    3.0374   12.9184 C   0  0  0  0  0  0  0  0  0  0  0  0
   26.6697    2.2613   13.5352 C   0  0  0  0  0  0  0  0  0  0  0  0
   26.9823    0.9800   13.0541 C   0  0  0  0  0  0  0  0  0  0  0  0
   26.2576    0.4800   11.9604 C   0  0  0  0  0  0  0  0  0  0  0  0
   27.5069   -3.4146   15.0083 C   0  0  0  0  0  0  0  0  0  0  0  0
   28.4838   -4.5393   15.1208 C   0  0  0  0  0  0  0  0  0  0  0  0
   29.0911   -5.2870   14.1311 C   0  0  0  0  0  0  0  0  0  0  0  0
   29.9328   -6.2284   14.6569 N   0  0  0  0  0  0  0  0  0  0  0  0
   29.8568   -6.0725   15.9612 C   0  0  0  0  0  0  0  0  0  0  0  0
   30.5026   -6.7676   17.0232 C   0  0  0  0  0  0  0  0  0  0  0  0
   30.2613   -6.4144   18.3003 C   0  0  0  0  0  0  0  0  0  0  0  0
   29.3534   -5.3272   18.6274 C   0  0  0  0  0  0  0  0  0  0  0  0
   28.7383   -4.6687   17.6304 C   0  0  0  0  0  0  0  0  0  0  0  0
   28.9853   -5.0398   16.3072 N   0  0  0  0  0  0  0  0  0  0  0  0
 17 18  1  0
 18 19  2  0
 19 20  1  0
 20 21  2  0
 21 22  1  0
 22 16  1  0
 16  1  1  0
  1  2  1  0
  2  3  2  0
  2 24  1  0
 24 25  1  0
 25 26  2  0
 26 27  1  0
 27 28  2  0
 28 29  1  0
 29 30  2  0
 30 31  1  0
 31 32  2  0
 32 33  1  0
  1  4  1  0
  4  5  2  0
  5  6  1  0
  6  7  2  0
  7  8  1  0
  8  9  2  0
  7 10  1  0
 10 11  1  0
 11 12  2  0
 12 13  1  0
 13 14  1  0
 22 23  2  0
 23 18  1  0
 33 25  1  0
  9  4  1  0
 14 10  2  0
 33 28  1  0
 13 15  1  0
M  END
> <ScrubInfo>
{"isomerGroup": 1, "isomerId": 0, "confId": 0, "nr_conformers:": 1, "nr_isomers:": 1}

> <minimizedAffinity>
-8.54274

> <CNNscore>
0.5702990890

> <CNNaffinity>
6.6109023094

> <CNN_VS>
3.7701916695

> <CNNaffinity_variance>
0.3195056915

$$$$
Compound_4


 33 37  0  0  0  0  0  0  0  0999 V2000
   25.2152   -1.5276   14.8806 N   0  0  0  0  0  0  0  0  0  0  0  0
   24.8633   -0.6912   15.9427 C   0  0  0  0  0  0  0  0  0  0  0  0
   23.7112   -0.2746   16.1008 O   0  0  0  0  0  0  0  0  0  0  0  0
   26.2513   -2.5093   14.9559 C   0  0  0  0  0  0  0  0  0  0  0  0
   26.1183   -3.6381   15.7704 C   0  0  0  0  0  0  0  0  0  0  0  0
   27.1450   -4.5877   15.8603 C   0  0  0  0  0  0  0  0  0  0  0  0
   28.3369   -4.4256   15.1460 C   0  0  0  0  0  0  0  0  0  0  0  0
   28.4815   -3.2872   14.3460 C   0  0  0  0  0  0  0  0  0  0  0  0
   27.4532   -2.3399   14.2551 C   0  0  0  0  0  0  0  0  0  0  0  0
   29.3958   -5.4146   15.2529 C   0  0  0  0  0  0  0  0  0  0  0  0
   30.4374   -5.7563   14.3574 C   0  0  0  0  0  0  0  0  0  0  0  0
   31.2312   -6.7215   14.8287 N   0  0  0  0  0  0  0  0  0  0  0  0
   30.7057   -7.0001   16.0314 N   0  0  0  0  0  0  0  0  0  0  0  0
   29.6074   -6.2466   16.3328 C   0  0  0  0  0  0  0  0  0  0  0  0
   31.1514   -7.7155   16.5967 H   0  0  0  0  0  0  0  0  0  0  0  0
   24.2938   -1.5844   13.7355 C   0  0  0  0  0  0  0  0  0  0  0  0
   25.7723    3.3327   12.7568 Cl  0  0  0  0  0  0  0  0  0  0  0  0
   25.2038    1.8000   12.2187 C   0  0  0  0  0  0  0  0  0  0  0  0
   24.9536    1.5914   10.8653 C   0  0  0  0  0  0  0  0  0  0  0  0
   24.5000    0.3466   10.4335 C   0  0  0  0  0  0  0  0  0  0  0  0
   24.2918   -0.6811   11.3562 C   0  0  0  0  0  0  0  0  0  0  0  0
   24.5188   -0.4753   12.7263 C   0  0  0  0  0  0  0  0  0  0  0  0
   24.9957    0.7771   13.1455 C   0  0  0  0  0  0  0  0  0  0  0  0
   25.9899   -0.1900   16.8523 C   0  0  0  0  0  0  0  0  0  0  0  0
   25.8464    1.2831   17.0554 C   0  0  0  0  0  0  0  0  0  0  0  0
   26.2965    2.3321   16.2779 C   0  0  0  0  0  0  0  0  0  0  0  0
   25.9504    3.5413   16.8155 N   0  0  0  0  0  0  0  0  0  0  0  0
   25.2889    3.2554   17.9164 C   0  0  0  0  0  0  0  0  0  0  0  0
   24.6898    4.1027   18.8917 C   0  0  0  0  0  0  0  0  0  0  0  0
   24.0529    3.5629   19.9486 C   0  0  0  0  0  0  0  0  0  0  0  0
   23.9549    2.1226   20.1198 C   0  0  0  0  0  0  0  0  0  0  0  0
   24.5204    1.3169   19.2049 C   0  0  0  0  0  0  0  0  0  0  0  0
   25.1851    1.8783   18.1127 N   0  0  0  0  0  0  0  0  0  0  0  0
 17 18  1  0
 18 19  2  0
 19 20  1  0
 20 21  2  0
 21 22  1  0
 22 16  1  0
 16  1  1  0
  1  2  1  0
  2  3  2  0
  2 24  1  0
 24 25  1  0
 25 26  2  0
 26 27  1  0
 27 28  2  0
 28 29  1  0
 29 30  2  0
 30 31  1  0
 31 32  2  0
 32 33  1  0
  1  4  1  0
  4  5  2  0
  5  6  1  0
  6  7  2  0
  7  8  1  0
  8  9  2  0
  7 10  1  0
 10 11  1  0
 11 12  2  0
 12 13  1  0
 13 14  1  0
 22 23  2  0
 23 18  1  0
 33 25  1  0
  9  4  1  0
 14 10  2  0
 33 28  1  0
 13 15  1  0
M  END
> <ScrubInfo>
{"isomerGroup": 1, "isomerId": 0, "confId": 0, "nr_conformers:": 1, "nr_isomers:": 1}

> <minimizedAffinity>
-8.30833

> <CNNscore>
0.5121966004

> <CNNaffinity>
6.7112865448

> <CNN_VS>
3.4374980927

> <CNNaffinity_variance>
0.1133282259

$$$$
Compound_4


 33 37  0  0  0  0  0  0  0  0999 V2000
   27.3267   -0.7299   14.7526 N   0  0  0  0  0  0  0  0  0  0  0  0
   28.6527   -0.3080   14.8766 C   0  0  0  0  0  0  0  0  0  0  0  0
   29.4156   -0.2362   13.9078 O   0  0  0  0  0  0  0  0  0  0  0  0
   26.2675   -0.2692   15.5946 C   0  0  0  0  0  0  0  0  0  0  0  0
   25.4303   -1.1702   16.2598 C   0  0  0  0  0  0  0  0  0  0  0  0
   24.3781   -0.7163   17.0666 C   0  0  0  0  0  0  0  0  0  0  0  0
   24.1294    0.6519   17.2187 C   0  0  0  0  0  0  0  0  0  0  0  0
   24.9523    1.5557   16.5385 C   0  0  0  0  0  0  0  0  0  0  0  0
   26.0055    1.1005   15.7342 C   0  0  0  0  0  0  0  0  0  0  0  0
   23.0314    1.1089   18.0533 C   0  0  0  0  0  0  0  0  0  0  0  0
   21.6346    0.9131   17.9348 C   0  0  0  0  0  0  0  0  0  0  0  0
   20.9443    1.4872   18.9236 N   0  0  0  0  0  0  0  0  0  0  0  0
   21.8956    2.0496   19.6845 N   0  0  0  0  0  0  0  0  0  0  0  0
   23.1602    1.8526   19.2081 C   0  0  0  0  0  0  0  0  0  0  0  0
   21.6096    2.5512   20.5191 H   0  0  0  0  0  0  0  0  0  0  0  0
   26.9657   -1.4631   13.5297 C   0  0  0  0  0  0  0  0  0  0  0  0
   22.8519   -1.1251   10.3229 Cl  0  0  0  0  0  0  0  0  0  0  0  0
   24.2448   -0.4304   11.0573 C   0  0  0  0  0  0  0  0  0  0  0  0
   24.6096    0.8773   10.7494 C   0  0  0  0  0  0  0  0  0  0  0  0
   25.7341    1.4376   11.3519 C   0  0  0  0  0  0  0  0  0  0  0  0
   26.4925    0.6871   12.2533 C   0  0  0  0  0  0  0  0  0  0  0  0
   26.1474   -0.6401   12.5539 C   0  0  0  0  0  0  0  0  0  0  0  0
   25.0001   -1.1857   11.9559 C   0  0  0  0  0  0  0  0  0  0  0  0
   29.1852   -0.0534   16.2906 C   0  0  0  0  0  0  0  0  0  0  0  0
   29.9340    1.2391   16.3143 C   0  0  0  0  0  0  0  0  0  0  0  0
   29.4632    2.5335   16.4168 C   0  0  0  0  0  0  0  0  0  0  0  0
   30.4850    3.4427   16.4068 N   0  0  0  0  0  0  0  0  0  0  0  0
   31.5848    2.7280   16.3016 C   0  0  0  0  0  0  0  0  0  0  0  0
   32.9516    3.1228   16.2375 C   0  0  0  0  0  0  0  0  0  0  0  0
   33.9154    2.1878   16.1336 C   0  0  0  0  0  0  0  0  0  0  0  0
   33.5950    0.7706   16.0898 C   0  0  0  0  0  0  0  0  0  0  0  0
   32.3072    0.3908   16.1470 C   0  0  0  0  0  0  0  0  0  0  0  0
   31.3089    1.3617   16.2491 N   0  0  0  0  0  0  0  0  0  0  0  0
 17 18  1  0
 18 19  2  0
 19 20  1  0
 20 21  2  0
 21 22  1  0
 22 16  1  0
 16  1  1  0
  1  2  1  0
  2  3  2  0
  2 24  1  0
 24 25  1  0
 25 26  2  0
 26 27  1  0
 27 28  2  0
 28 29  1  0
 29 30  2  0
 30 31  1  0
 31 32  2  0
 32 33  1  0
  1  4  1  0
  4  5  2  0
  5  6  1  0
  6  7  2  0
  7  8  1  0
  8  9  2  0
  7 10  1  0
 10 11  1  0
 11 12  2  0
 12 13  1  0
 13 14  1  0
 22 23  2  0
 23 18  1  0
 33 25  1  0
  9  4  1  0
 14 10  2  0
 33 28  1  0
 13 15  1  0
M  END
> <ScrubInfo>
{"isomerGroup": 1, "isomerId": 0, "confId": 0, "nr_conformers:": 1, "nr_isomers:": 1}

> <minimizedAffinity>
-6.73174

> <CNNscore>
0.4699205756

> <CNNaffinity>
6.4053688049

> <CNN_VS>
3.0100145340

> <CNNaffinity_variance>
0.3165772855

$$$$
Compound_4


 33 37  0  0  0  0  0  0  0  0999 V2000
   27.6143   -0.4330   14.8258 N   0  0  0  0  0  0  0  0  0  0  0  0
   28.4598   -1.4907   15.1692 C   0  0  0  0  0  0  0  0  0  0  0  0
   29.6555   -1.5071   14.8595 O   0  0  0  0  0  0  0  0  0  0  0  0
   26.4940   -0.0269   15.6150 C   0  0  0  0  0  0  0  0  0  0  0  0
   26.6532    0.8331   16.7060 C   0  0  0  0  0  0  0  0  0  0  0  0
   25.5566    1.2116   17.4922 C   0  0  0  0  0  0  0  0  0  0  0  0
   24.2734    0.7291   17.2135 C   0  0  0  0  0  0  0  0  0  0  0  0
   24.1136   -0.1475   16.1351 C   0  0  0  0  0  0  0  0  0  0  0  0
   25.2106   -0.5231   15.3485 C   0  0  0  0  0  0  0  0  0  0  0  0
   23.1461    1.1248   18.0402 C   0  0  0  0  0  0  0  0  0  0  0  0
   21.7589    0.8870   17.8895 C   0  0  0  0  0  0  0  0  0  0  0  0
   21.0322    1.4083   18.8814 N   0  0  0  0  0  0  0  0  0  0  0  0
   21.9504    1.9786   19.6764 N   0  0  0  0  0  0  0  0  0  0  0  0
   23.2292    1.8374   19.2185 C   0  0  0  0  0  0  0  0  0  0  0  0
   21.6329    2.4454   20.5198 H   0  0  0  0  0  0  0  0  0  0  0  0
   28.0657    0.4682   13.7546 C   0  0  0  0  0  0  0  0  0  0  0  0
   24.3803    0.4890   10.0480 Cl  0  0  0  0  0  0  0  0  0  0  0  0
   25.1971    1.2495   11.3582 C   0  0  0  0  0  0  0  0  0  0  0  0
   24.8112    2.5227   11.7681 C   0  0  0  0  0  0  0  0  0  0  0  0
   25.4709    3.1315   12.8339 C   0  0  0  0  0  0  0  0  0  0  0  0
   26.5170    2.4689   13.4800 C   0  0  0  0  0  0  0  0  0  0  0  0
   26.9300    1.1944   13.0605 C   0  0  0  0  0  0  0  0  0  0  0  0
   26.2431    0.5835   11.9990 C   0  0  0  0  0  0  0  0  0  0  0  0
   27.8267   -2.7132   15.8420 C   0  0  0  0  0  0  0  0  0  0  0  0
   28.8910   -3.5164   16.5159 C   0  0  0  0  0  0  0  0  0  0  0  0
   29.3219   -3.4917   17.8278 C   0  0  0  0  0  0  0  0  0  0  0  0
   30.3245   -4.3964   18.0451 N   0  0  0  0  0  0  0  0  0  0  0  0
   30.5196   -4.9840   16.8841 C   0  0  0  0  0  0  0  0  0  0  0  0
   31.4352   -6.0037   16.4966 C   0  0  0  0  0  0  0  0  0  0  0  0
   31.4413   -6.4521   15.2266 C   0  0  0  0  0  0  0  0  0  0  0  0
   30.5248   -5.9210   14.2309 C   0  0  0  0  0  0  0  0  0  0  0  0
   29.6600   -4.9567   14.5888 C   0  0  0  0  0  0  0  0  0  0  0  0
   29.6588   -4.4891   15.9045 N   0  0  0  0  0  0  0  0  0  0  0  0
 17 18  1  0
 18 19  2  0
 19 20  1  0
 20 21  2  0
 21 22  1  0
 22 16  1  0
 16  1  1  0
  1  2  1  0
  2  3  2  0
  2 24  1  0
 24 25  1  0
 25 26  2  0
 26 27  1  0
 27 28  2  0
 28 29  1  0
 29 30  2  0
 30 31  1  0
 31 32  2  0
 32 33  1  0
  1  4  1  0
  4  5  2  0
  5  6  1  0
  6  7  2  0
  7  8  1  0
  8  9  2  0
  7 10  1  0
 10 11  1  0
 11 12  2  0
 12 13  1  0
 13 14  1  0
 22 23  2  0
 23 18  1  0
 33 25  1  0
  9  4  1  0
 14 10  2  0
 33 28  1  0
 13 15  1  0
M  END
> <ScrubInfo>
{"isomerGroup": 1, "isomerId": 0, "confId": 0, "nr_conformers:": 1, "nr_isomers:": 1}

> <minimizedAffinity>
-7.94697

> <CNNscore>
0.4381646514

> <CNNaffinity>
6.6701760292

> <CNN_VS>
2.9226353168

> <CNNaffinity_variance>
0.1848811358

$$$$
Compound_4


 33 37  0  0  0  0  0  0  0  0999 V2000
   24.9179   -1.3801   14.9035 N   0  0  0  0  0  0  0  0  0  0  0  0
   24.3350   -0.7554   16.0087 C   0  0  0  0  0  0  0  0  0  0  0  0
   23.1500   -0.4069   16.0208 O   0  0  0  0  0  0  0  0  0  0  0  0
   25.9822   -2.3292   15.0009 C   0  0  0  0  0  0  0  0  0  0  0  0
   27.2449   -2.0554   14.4662 C   0  0  0  0  0  0  0  0  0  0  0  0
   28.2802   -2.9968   14.5426 C   0  0  0  0  0  0  0  0  0  0  0  0
   28.0746   -4.2420   15.1460 C   0  0  0  0  0  0  0  0  0  0  0  0
   26.8068   -4.5273   15.6639 C   0  0  0  0  0  0  0  0  0  0  0  0
   25.7733   -3.5842   15.5890 C   0  0  0  0  0  0  0  0  0  0  0  0
   29.1549   -5.2112   15.2132 C   0  0  0  0  0  0  0  0  0  0  0  0
   30.1869   -5.5127   14.2926 C   0  0  0  0  0  0  0  0  0  0  0  0
   31.0082   -6.4711   14.7293 N   0  0  0  0  0  0  0  0  0  0  0  0
   30.5102   -6.7854   15.9348 N   0  0  0  0  0  0  0  0  0  0  0  0
   29.4025   -6.0610   16.2713 C   0  0  0  0  0  0  0  0  0  0  0  0
   30.9802   -7.5032   16.4769 H   0  0  0  0  0  0  0  0  0  0  0  0
   24.2171   -1.2601   13.6159 C   0  0  0  0  0  0  0  0  0  0  0  0
   26.0195    3.6462   13.5861 Cl  0  0  0  0  0  0  0  0  0  0  0  0
   25.4638    2.2452   12.7552 C   0  0  0  0  0  0  0  0  0  0  0  0
   25.3882    2.2501   11.3651 C   0  0  0  0  0  0  0  0  0  0  0  0
   24.9443    1.1110   10.6965 C   0  0  0  0  0  0  0  0  0  0  0  0
   24.5714   -0.0243   11.4195 C   0  0  0  0  0  0  0  0  0  0  0  0
   24.6216   -0.0329   12.8225 C   0  0  0  0  0  0  0  0  0  0  0  0
   25.0906    1.1140   13.4829 C   0  0  0  0  0  0  0  0  0  0  0  0
   25.2520   -0.3906   17.1809 C   0  0  0  0  0  0  0  0  0  0  0  0
   25.6047    1.0590   17.1033 C   0  0  0  0  0  0  0  0  0  0  0  0
   24.8044    2.1744   17.2550 C   0  0  0  0  0  0  0  0  0  0  0  0
   25.5210    3.3307   17.1127 N   0  0  0  0  0  0  0  0  0  0  0  0
   26.7571    2.9465   16.8767 C   0  0  0  0  0  0  0  0  0  0  0  0
   27.9406    3.7029   16.6413 C   0  0  0  0  0  0  0  0  0  0  0  0
   29.1093    3.0695   16.4249 C   0  0  0  0  0  0  0  0  0  0  0  0
   29.1973    1.6184   16.4303 C   0  0  0  0  0  0  0  0  0  0  0  0
   28.0840    0.8982   16.6489 C   0  0  0  0  0  0  0  0  0  0  0  0
   26.8722    1.5564   16.8676 N   0  0  0  0  0  0  0  0  0  0  0  0
 17 18  1  0
 18 19  2  0
 19 20  1  0
 20 21  2  0
 21 22  1  0
 22 16  1  0
 16  1  1  0
  1  2  1  0
  2  3  2  0
  2 24  1  0
 24 25  1  0
 25 26  2  0
 26 27  1  0
 27 28  2  0
 28 29  1  0
 29 30  2  0
 30 31  1  0
 31 32  2  0
 32 33  1  0
  1  4  1  0
  4  5  2  0
  5  6  1  0
  6  7  2  0
  7  8  1  0
  8  9  2  0
  7 10  1  0
 10 11  1  0
 11 12  2  0
 12 13  1  0
 13 14  1  0
 22 23  2  0
 23 18  1  0
 33 25  1  0
  9  4  1  0
 14 10  2  0
 33 28  1  0
 13 15  1  0
M  END
> <ScrubInfo>
{"isomerGroup": 1, "isomerId": 0, "confId": 0, "nr_conformers:": 1, "nr_isomers:": 1}

> <minimizedAffinity>
-7.28323

> <CNNscore>
0.4028061628

> <CNNaffinity>
6.4480381012

> <CNN_VS>
2.5973095894

> <CNNaffinity_variance>
0.0843242779

$$$$
Compound_83


 31 34  0  0  0  0  0  0  0  0999 V2000
   26.6156   -0.3062   15.2889 N   0  0  0  0  0  0  0  0  0  0  0  0
   25.3383   -0.1558   15.8712 C   0  0  0  0  0  0  0  0  0  0  0  0
   24.5414   -1.0890   15.9989 O   0  0  0  0  0  0  0  0  0  0  0  0
   28.5029   -4.2179   15.0917 C   0  0  0  0  0  0  0  0  0  0  0  0
   28.9540   -3.1305   14.3222 C   0  0  0  0  0  0  0  0  0  0  0  0
   27.4263   -3.9440   15.9456 C   0  0  0  0  0  0  0  0  0  0  0  0
   28.3529   -1.8599   14.3822 C   0  0  0  0  0  0  0  0  0  0  0  0
   26.8142   -2.6803   15.9974 C   0  0  0  0  0  0  0  0  0  0  0  0
   27.2473   -1.6097   15.2048 C   0  0  0  0  0  0  0  0  0  0  0  0
   30.5937   -5.7955   14.3511 C   0  0  0  0  0  0  0  0  0  0  0  0
   30.9109   -6.7967   15.3849 N   0  0  0  0  0  0  0  0  0  0  0  0
   29.8813   -6.2069   16.2556 C   0  0  0  0  0  0  0  0  0  0  0  0
   29.1907   -5.6399   14.9886 C   0  0  0  0  0  0  0  0  0  0  0  0
   30.7105   -7.7648   15.0977 H   0  0  0  0  0  0  0  0  0  0  0  0
   31.8688   -6.7350   15.7505 H   0  0  0  0  0  0  0  0  0  0  0  0
   27.2658    0.8458   14.6410 C   0  0  0  0  0  0  0  0  0  0  0  0
   26.5138    1.4498   13.4794 C   0  0  0  0  0  0  0  0  0  0  0  0
   26.1871    2.8094   13.5256 C   0  0  0  0  0  0  0  0  0  0  0  0
   26.1211    0.7426   12.3355 C   0  0  0  0  0  0  0  0  0  0  0  0
   25.5175    3.4734   12.5544 N   0  0  0  0  0  0  0  0  0  0  0  0
   25.4287    1.4035   11.3275 C   0  0  0  0  0  0  0  0  0  0  0  0
   25.1497    2.7511   11.4711 C   0  0  0  0  0  0  0  0  0  0  0  0
   25.0306    0.7345   10.2396 F   0  0  0  0  0  0  0  0  0  0  0  0
   24.9378    1.2537   16.3223 C   0  0  0  0  0  0  0  0  0  0  0  0
   23.8403    1.2638   17.3552 C   0  0  0  0  0  0  0  0  0  0  0  0
   22.5559    0.8150   17.0460 C   0  0  0  0  0  0  0  0  0  0  0  0
   24.0713    1.7079   18.6624 C   0  0  0  0  0  0  0  0  0  0  0  0
   21.5229    0.8036   17.9213 N   0  0  0  0  0  0  0  0  0  0  0  0
   23.0266    1.6979   19.5771 C   0  0  0  0  0  0  0  0  0  0  0  0
   21.7838    1.2483   19.1728 C   0  0  0  0  0  0  0  0  0  0  0  0
   23.2245    2.1209   20.8328 F   0  0  0  0  0  0  0  0  0  0  0  0
 10 11  1  0
 11 12  1  0
 13 10  1  0
  4 13  1  0
 12 13  1  0
  5  4  2  0
  4  6  1  0
  7  5  1  0
  6  8  2  0
  9  7  2  0
  8  9  1  0
  1  9  1  0
 16  1  1  0
  1  2  1  0
 17 16  1  0
  2  3  2  0
  2 24  1  0
 18 17  2  0
 17 19  1  0
 24 25  1  0
 20 18  1  0
 19 21  2  0
 25 26  2  0
 27 25  1  0
 22 20  2  0
 23 21  1  0
 21 22  1  0
 26 28  1  0
 29 27  2  0
 28 30  2  0
 30 29  1  0
 29 31  1  0
 11 14  1  0
 11 15  1  0
M  CHG 1  11   1
M  END
> <ScrubInfo>
{"isomerGroup": 0, "isomerId": 0, "confId": 0, "nr_conformers:": 1, "nr_isomers:": 1}

> <minimizedAffinity>
-7.90606

> <CNNscore>
0.7537399530

> <CNNaffinity>
6.9469504356

> <CNN_VS>
5.2361941338

> <CNNaffinity_variance>
0.0004986310

$$$$
Compound_83


 31 34  0  0  0  0  0  0  0  0999 V2000
   25.7680   -1.7509   15.8151 N   0  0  0  0  0  0  0  0  0  0  0  0
   25.4976   -3.0775   16.2157 C   0  0  0  0  0  0  0  0  0  0  0  0
   25.1985   -3.3849   17.3724 O   0  0  0  0  0  0  0  0  0  0  0  0
   24.4049    1.6284   18.1868 C   0  0  0  0  0  0  0  0  0  0  0  0
   23.6138    0.4814   17.9960 C   0  0  0  0  0  0  0  0  0  0  0  0
   25.6705    1.5919   17.5864 C   0  0  0  0  0  0  0  0  0  0  0  0
   24.0476   -0.6190   17.2341 C   0  0  0  0  0  0  0  0  0  0  0  0
   26.1012    0.5011   16.8128 C   0  0  0  0  0  0  0  0  0  0  0  0
   25.2961   -0.6251   16.5994 C   0  0  0  0  0  0  0  0  0  0  0  0
   23.9990    2.8588   20.5804 C   0  0  0  0  0  0  0  0  0  0  0  0
   24.3285    4.2938   20.5158 N   0  0  0  0  0  0  0  0  0  0  0  0
   24.7820    4.1153   19.1271 C   0  0  0  0  0  0  0  0  0  0  0  0
   23.8807    2.8570   19.0361 C   0  0  0  0  0  0  0  0  0  0  0  0
   23.5097    4.9104   20.6118 H   0  0  0  0  0  0  0  0  0  0  0  0
   25.0620    4.5871   21.1724 H   0  0  0  0  0  0  0  0  0  0  0  0
   26.6475   -1.4988   14.6608 C   0  0  0  0  0  0  0  0  0  0  0  0
   25.9985   -0.8073   13.4861 C   0  0  0  0  0  0  0  0  0  0  0  0
   26.4988    0.4339   13.0779 C   0  0  0  0  0  0  0  0  0  0  0  0
   24.9224   -1.3277   12.7554 C   0  0  0  0  0  0  0  0  0  0  0  0
   26.0107    1.1579   12.0434 N   0  0  0  0  0  0  0  0  0  0  0  0
   24.4025   -0.5992   11.6917 C   0  0  0  0  0  0  0  0  0  0  0  0
   24.9663    0.6227   11.3701 C   0  0  0  0  0  0  0  0  0  0  0  0
   23.3621   -1.0761   10.9992 F   0  0  0  0  0  0  0  0  0  0  0  0
   25.6266   -4.1697   15.1474 C   0  0  0  0  0  0  0  0  0  0  0  0
   27.0368   -4.6707   14.9691 C   0  0  0  0  0  0  0  0  0  0  0  0
   27.7807   -5.1308   16.0561 C   0  0  0  0  0  0  0  0  0  0  0  0
   27.6453   -4.7074   13.7091 C   0  0  0  0  0  0  0  0  0  0  0  0
   29.0527   -5.5865   15.9691 N   0  0  0  0  0  0  0  0  0  0  0  0
   28.9471   -5.1776   13.5976 C   0  0  0  0  0  0  0  0  0  0  0  0
   29.6092   -5.5986   14.7353 C   0  0  0  0  0  0  0  0  0  0  0  0
   29.5500   -5.2191   12.4019 F   0  0  0  0  0  0  0  0  0  0  0  0
 10 11  1  0
 11 12  1  0
 13 10  1  0
  4 13  1  0
 12 13  1  0
  5  4  2  0
  4  6  1  0
  7  5  1  0
  6  8  2  0
  9  7  2  0
  8  9  1  0
  1  9  1  0
 16  1  1  0
  1  2  1  0
 17 16  1  0
  2  3  2  0
  2 24  1  0
 18 17  2  0
 17 19  1  0
 24 25  1  0
 20 18  1  0
 19 21  2  0
 25 26  2  0
 27 25  1  0
 22 20  2  0
 23 21  1  0
 21 22  1  0
 26 28  1  0
 29 27  2  0
 28 30  2  0
 30 29  1  0
 29 31  1  0
 11 14  1  0
 11 15  1  0
M  CHG 1  11   1
M  END
> <ScrubInfo>
{"isomerGroup": 0, "isomerId": 0, "confId": 0, "nr_conformers:": 1, "nr_isomers:": 1}

> <minimizedAffinity>
-6.86254

> <CNNscore>
0.5688902736

> <CNNaffinity>
6.5014610291

> <CNN_VS>
3.6986179352

> <CNNaffinity_variance>
0.1015827954

$$$$
Compound_83


 31 34  0  0  0  0  0  0  0  0999 V2000
   25.3221   -0.1110   15.4624 N   0  0  0  0  0  0  0  0  0  0  0  0
   26.0234    1.1137   15.5021 C   0  0  0  0  0  0  0  0  0  0  0  0
   27.2318    1.1914   15.7385 O   0  0  0  0  0  0  0  0  0  0  0  0
   27.4259   -3.8755   14.9109 C   0  0  0  0  0  0  0  0  0  0  0  0
   27.6994   -2.7438   14.1221 C   0  0  0  0  0  0  0  0  0  0  0  0
   26.4533   -3.6954   15.9034 C   0  0  0  0  0  0  0  0  0  0  0  0
   27.0273   -1.5200   14.2957 C   0  0  0  0  0  0  0  0  0  0  0  0
   25.7698   -2.4792   16.0700 C   0  0  0  0  0  0  0  0  0  0  0  0
   26.0235   -1.3649   15.2601 C   0  0  0  0  0  0  0  0  0  0  0  0
   29.0406   -5.4677   13.4054 C   0  0  0  0  0  0  0  0  0  0  0  0
   30.0263   -6.1816   14.2364 N   0  0  0  0  0  0  0  0  0  0  0  0
   29.5324   -5.4611   15.4209 C   0  0  0  0  0  0  0  0  0  0  0  0
   28.1884   -5.2432   14.6791 C   0  0  0  0  0  0  0  0  0  0  0  0
   29.8756   -7.1993   14.2736 H   0  0  0  0  0  0  0  0  0  0  0  0
   31.0043   -5.9849   13.9915 H   0  0  0  0  0  0  0  0  0  0  0  0
   23.8793   -0.1391   15.7577 C   0  0  0  0  0  0  0  0  0  0  0  0
   23.4784    0.4205   17.1014 C   0  0  0  0  0  0  0  0  0  0  0  0
   22.1290    0.7089   17.3327 C   0  0  0  0  0  0  0  0  0  0  0  0
   24.3682    0.6669   18.1551 C   0  0  0  0  0  0  0  0  0  0  0  0
   21.6368    1.2123   18.4889 N   0  0  0  0  0  0  0  0  0  0  0  0
   23.8853    1.1877   19.3500 C   0  0  0  0  0  0  0  0  0  0  0  0
   22.5315    1.4432   19.4773 C   0  0  0  0  0  0  0  0  0  0  0  0
   24.7280    1.4462   20.3562 F   0  0  0  0  0  0  0  0  0  0  0  0
   25.2093    2.3925   15.2733 C   0  0  0  0  0  0  0  0  0  0  0  0
   25.2697    2.8961   13.8540 C   0  0  0  0  0  0  0  0  0  0  0  0
   25.6418    4.2108   13.5713 C   0  0  0  0  0  0  0  0  0  0  0  0
   24.9706    2.0630   12.7697 C   0  0  0  0  0  0  0  0  0  0  0  0
   25.7094    4.7305   12.3229 N   0  0  0  0  0  0  0  0  0  0  0  0
   25.0405    2.5751   11.4809 C   0  0  0  0  0  0  0  0  0  0  0  0
   25.4050    3.8961   11.3016 C   0  0  0  0  0  0  0  0  0  0  0  0
   24.7561    1.7962   10.4285 F   0  0  0  0  0  0  0  0  0  0  0  0
 10 11  1  0
 11 12  1  0
 13 10  1  0
  4 13  1  0
 12 13  1  0
  5  4  2  0
  4  6  1  0
  7  5  1  0
  6  8  2  0
  9  7  2  0
  8  9  1  0
  1  9  1  0
 16  1  1  0
  1  2  1  0
 17 16  1  0
  2  3  2  0
  2 24  1  0
 18 17  2  0
 17 19  1  0
 24 25  1  0
 20 18  1  0
 19 21  2  0
 25 26  2  0
 27 25  1  0
 22 20  2  0
 23 21  1  0
 21 22  1  0
 26 28  1  0
 29 27  2  0
 28 30  2  0
 30 29  1  0
 29 31  1  0
 11 14  1  0
 11 15  1  0
M  CHG 1  11   1
M  END
> <ScrubInfo>
{"isomerGroup": 0, "isomerId": 0, "confId": 0, "nr_conformers:": 1, "nr_isomers:": 1}

> <minimizedAffinity>
-7.11913

> <CNNscore>
0.5274484754

> <CNNaffinity>
6.6476244926

> <CNN_VS>
3.5062794685

> <CNNaffinity_variance>
0.2028640509

$$$$
Compound_83


 31 34  0  0  0  0  0  0  0  0999 V2000
   25.9366    0.4982   15.4346 N   0  0  0  0  0  0  0  0  0  0  0  0
   24.6826    0.7353   16.0385 C   0  0  0  0  0  0  0  0  0  0  0  0
   23.7949   -0.1187   16.1070 O   0  0  0  0  0  0  0  0  0  0  0  0
   27.4712   -3.5338   14.8954 C   0  0  0  0  0  0  0  0  0  0  0  0
   26.4557   -3.0050   14.0787 C   0  0  0  0  0  0  0  0  0  0  0  0
   27.9726   -2.6619   15.8710 C   0  0  0  0  0  0  0  0  0  0  0  0
   25.9555   -1.7001   14.2423 C   0  0  0  0  0  0  0  0  0  0  0  0
   27.4655   -1.3635   16.0468 C   0  0  0  0  0  0  0  0  0  0  0  0
   26.4315   -0.8534   15.2513 C   0  0  0  0  0  0  0  0  0  0  0  0
   28.6289   -5.4527   13.3506 C   0  0  0  0  0  0  0  0  0  0  0  0
   29.6139   -6.2411   14.1120 N   0  0  0  0  0  0  0  0  0  0  0  0
   29.3922   -5.3708   15.2780 C   0  0  0  0  0  0  0  0  0  0  0  0
   28.0005   -5.0122   14.6960 C   0  0  0  0  0  0  0  0  0  0  0  0
   29.3326   -7.2200   14.2620 H   0  0  0  0  0  0  0  0  0  0  0  0
   30.5660   -6.2093   13.7278 H   0  0  0  0  0  0  0  0  0  0  0  0
   26.6994    1.6217   14.8643 C   0  0  0  0  0  0  0  0  0  0  0  0
   26.1392    2.2102   13.5918 C   0  0  0  0  0  0  0  0  0  0  0  0
   26.0165    3.6004   13.4925 C   0  0  0  0  0  0  0  0  0  0  0  0
   25.7361    1.4579   12.4808 C   0  0  0  0  0  0  0  0  0  0  0  0
   25.5314    4.2549   12.4114 N   0  0  0  0  0  0  0  0  0  0  0  0
   25.2310    2.1090   11.3612 C   0  0  0  0  0  0  0  0  0  0  0  0
   25.1459    3.4900   11.3640 C   0  0  0  0  0  0  0  0  0  0  0  0
   24.8239    1.4006   10.3021 F   0  0  0  0  0  0  0  0  0  0  0  0
   24.4294    2.1421   16.5930 C   0  0  0  0  0  0  0  0  0  0  0  0
   24.8107    2.2928   18.0434 C   0  0  0  0  0  0  0  0  0  0  0  0
   26.1323    2.5357   18.4193 C   0  0  0  0  0  0  0  0  0  0  0  0
   23.8549    2.2101   19.0626 C   0  0  0  0  0  0  0  0  0  0  0  0
   26.5453    2.6737   19.7013 N   0  0  0  0  0  0  0  0  0  0  0  0
   24.2572    2.3554   20.3837 C   0  0  0  0  0  0  0  0  0  0  0  0
   25.5931    2.5791   20.6585 C   0  0  0  0  0  0  0  0  0  0  0  0
   23.3597    2.2774   21.3753 F   0  0  0  0  0  0  0  0  0  0  0  0
 10 11  1  0
 11 12  1  0
 13 10  1  0
  4 13  1  0
 12 13  1  0
  5  4  2  0
  4  6  1  0
  7  5  1  0
  6  8  2  0
  9  7  2  0
  8  9  1  0
  1  9  1  0
 16  1  1  0
  1  2  1  0
 17 16  1  0
  2  3  2  0
  2 24  1  0
 18 17  2  0
 17 19  1  0
 24 25  1  0
 20 18  1  0
 19 21  2  0
 25 26  2  0
 27 25  1  0
 22 20  2  0
 23 21  1  0
 21 22  1  0
 26 28  1  0
 29 27  2  0
 28 30  2  0
 30 29  1  0
 29 31  1  0
 11 14  1  0
 11 15  1  0
M  CHG 1  11   1
M  END
> <ScrubInfo>
{"isomerGroup": 0, "isomerId": 0, "confId": 0, "nr_conformers:": 1, "nr_isomers:": 1}

> <minimizedAffinity>
-7.10321

> <CNNscore>
0.4948821068

> <CNNaffinity>
6.3887867928

> <CNN_VS>
3.1616961956

> <CNNaffinity_variance>
0.0405508615

$$$$
Compound_83


 31 34  0  0  0  0  0  0  0  0999 V2000
   25.5210   -0.0202   15.2899 N   0  0  0  0  0  0  0  0  0  0  0  0
   25.7419    0.8145   16.4070 C   0  0  0  0  0  0  0  0  0  0  0  0
   26.4922    0.5105   17.3379 O   0  0  0  0  0  0  0  0  0  0  0  0
   28.3707   -3.1182   14.2018 C   0  0  0  0  0  0  0  0  0  0  0  0
   27.0820   -3.4212   14.6764 C   0  0  0  0  0  0  0  0  0  0  0  0
   28.6588   -1.7527   14.0757 C   0  0  0  0  0  0  0  0  0  0  0  0
   26.1512   -2.4260   15.0269 C   0  0  0  0  0  0  0  0  0  0  0  0
   27.7372   -0.7563   14.4385 C   0  0  0  0  0  0  0  0  0  0  0  0
   26.4666   -1.0641   14.9413 C   0  0  0  0  0  0  0  0  0  0  0  0
   30.0043   -5.1691   14.9323 C   0  0  0  0  0  0  0  0  0  0  0  0
   29.8979   -6.3059   14.0006 N   0  0  0  0  0  0  0  0  0  0  0  0
   28.8382   -5.5928   13.2696 C   0  0  0  0  0  0  0  0  0  0  0  0
   29.4007   -4.2618   13.8317 C   0  0  0  0  0  0  0  0  0  0  0  0
   30.7508   -6.4678   13.4472 H   0  0  0  0  0  0  0  0  0  0  0  0
   29.5988   -7.1844   14.4410 H   0  0  0  0  0  0  0  0  0  0  0  0
   24.2565    0.0774   14.5408 C   0  0  0  0  0  0  0  0  0  0  0  0
   24.3959    0.2629   13.0489 C   0  0  0  0  0  0  0  0  0  0  0  0
   24.9464    1.4565   12.5696 C   0  0  0  0  0  0  0  0  0  0  0  0
   24.0192   -0.6896   12.0930 C   0  0  0  0  0  0  0  0  0  0  0  0
   25.1269    1.7496   11.2604 N   0  0  0  0  0  0  0  0  0  0  0  0
   24.1917   -0.4080   10.7427 C   0  0  0  0  0  0  0  0  0  0  0  0
   24.7420    0.8057   10.3707 C   0  0  0  0  0  0  0  0  0  0  0  0
   23.8172   -1.3011    9.8199 F   0  0  0  0  0  0  0  0  0  0  0  0
   24.9693    2.1379   16.4535 C   0  0  0  0  0  0  0  0  0  0  0  0
   25.7844    3.3244   16.0067 C   0  0  0  0  0  0  0  0  0  0  0  0
   26.8801    3.1668   15.1573 C   0  0  0  0  0  0  0  0  0  0  0  0
   25.4650    4.6251   16.4133 C   0  0  0  0  0  0  0  0  0  0  0  0
   27.6592    4.1858   14.7239 N   0  0  0  0  0  0  0  0  0  0  0  0
   26.2478    5.6847   15.9743 C   0  0  0  0  0  0  0  0  0  0  0  0
   27.3233    5.4274   15.1454 C   0  0  0  0  0  0  0  0  0  0  0  0
   25.9619    6.9377   16.3531 F   0  0  0  0  0  0  0  0  0  0  0  0
 10 11  1  0
 11 12  1  0
 13 10  1  0
  4 13  1  0
 12 13  1  0
  5  4  2  0
  4  6  1  0
  7  5  1  0
  6  8  2  0
  9  7  2  0
  8  9  1  0
  1  9  1  0
 16  1  1  0
  1  2  1  0
 17 16  1  0
  2  3  2  0
  2 24  1  0
 18 17  2  0
 17 19  1  0
 24 25  1  0
 20 18  1  0
 19 21  2  0
 25 26  2  0
 27 25  1  0
 22 20  2  0
 23 21  1  0
 21 22  1  0
 26 28  1  0
 29 27  2  0
 28 30  2  0
 30 29  1  0
 29 31  1  0
 11 14  1  0
 11 15  1  0
M  CHG 1  11   1
M  END
> <ScrubInfo>
{"isomerGroup": 0, "isomerId": 0, "confId": 0, "nr_conformers:": 1, "nr_isomers:": 1}

> <minimizedAffinity>
-6.83454

> <CNNscore>
0.4822522700

> <CNNaffinity>
6.2102985382

> <CNN_VS>
2.9949305058

> <CNNaffinity_variance>
0.2864091098

$$$$
Compound_83


 31 34  0  0  0  0  0  0  0  0999 V2000
   25.4031    0.1001   15.4898 N   0  0  0  0  0  0  0  0  0  0  0  0
   24.3473    0.2668   16.4122 C   0  0  0  0  0  0  0  0  0  0  0  0
   23.7027   -0.6769   16.8770 O   0  0  0  0  0  0  0  0  0  0  0  0
   27.4740   -3.6983   15.0584 C   0  0  0  0  0  0  0  0  0  0  0  0
   26.1242   -3.6225   15.4460 C   0  0  0  0  0  0  0  0  0  0  0  0
   28.0925   -2.4694   14.7923 C   0  0  0  0  0  0  0  0  0  0  0  0
   25.4441   -2.3987   15.5841 C   0  0  0  0  0  0  0  0  0  0  0  0
   27.4208   -1.2447   14.9434 C   0  0  0  0  0  0  0  0  0  0  0  0
   26.0857   -1.1738   15.3610 C   0  0  0  0  0  0  0  0  0  0  0  0
   28.7355   -5.5848   13.5556 C   0  0  0  0  0  0  0  0  0  0  0  0
   29.9265   -6.1173   14.2409 N   0  0  0  0  0  0  0  0  0  0  0  0
   29.7092   -5.1602   15.3377 C   0  0  0  0  0  0  0  0  0  0  0  0
   28.2153   -5.0909   14.9283 C   0  0  0  0  0  0  0  0  0  0  0  0
   29.8348   -7.1032   14.5227 H   0  0  0  0  0  0  0  0  0  0  0  0
   30.8040   -5.9849   13.7236 H   0  0  0  0  0  0  0  0  0  0  0  0
   25.7364    1.1870   14.5533 C   0  0  0  0  0  0  0  0  0  0  0  0
   25.3079    0.9681   13.1222 C   0  0  0  0  0  0  0  0  0  0  0  0
   25.6735    1.9155   12.1598 C   0  0  0  0  0  0  0  0  0  0  0  0
   24.5688   -0.1353   12.6760 C   0  0  0  0  0  0  0  0  0  0  0  0
   25.3553    1.8404   10.8462 N   0  0  0  0  0  0  0  0  0  0  0  0
   24.2273   -0.2308   11.3319 C   0  0  0  0  0  0  0  0  0  0  0  0
   24.6338    0.7631   10.4593 C   0  0  0  0  0  0  0  0  0  0  0  0
   23.5046   -1.2691   10.8973 F   0  0  0  0  0  0  0  0  0  0  0  0
   23.9848    1.7033   16.8066 C   0  0  0  0  0  0  0  0  0  0  0  0
   24.1621    1.9847   18.2767 C   0  0  0  0  0  0  0  0  0  0  0  0
   23.0828    1.9177   19.1583 C   0  0  0  0  0  0  0  0  0  0  0  0
   25.4141    2.3076   18.8129 C   0  0  0  0  0  0  0  0  0  0  0  0
   23.1691    2.1654   20.4866 N   0  0  0  0  0  0  0  0  0  0  0  0
   25.5249    2.5587   20.1741 C   0  0  0  0  0  0  0  0  0  0  0  0
   24.3946    2.4824   20.9657 C   0  0  0  0  0  0  0  0  0  0  0  0
   26.7129    2.8721   20.7083 F   0  0  0  0  0  0  0  0  0  0  0  0
 10 11  1  0
 11 12  1  0
 13 10  1  0
  4 13  1  0
 12 13  1  0
  5  4  2  0
  4  6  1  0
  7  5  1  0
  6  8  2  0
  9  7  2  0
  8  9  1  0
  1  9  1  0
 16  1  1  0
  1  2  1  0
 17 16  1  0
  2  3  2  0
  2 24  1  0
 18 17  2  0
 17 19  1  0
 24 25  1  0
 20 18  1  0
 19 21  2  0
 25 26  2  0
 27 25  1  0
 22 20  2  0
 23 21  1  0
 21 22  1  0
 26 28  1  0
 29 27  2  0
 28 30  2  0
 30 29  1  0
 29 31  1  0
 11 14  1  0
 11 15  1  0
M  CHG 1  11   1
M  END
> <ScrubInfo>
{"isomerGroup": 0, "isomerId": 0, "confId": 0, "nr_conformers:": 1, "nr_isomers:": 1}

> <minimizedAffinity>
-7.38234

> <CNNscore>
0.4223351479

> <CNNaffinity>
6.3670940399

> <CNN_VS>
2.6890475750

> <CNNaffinity_variance>
0.0969663858

$$$$
Compound_83


 31 34  0  0  0  0  0  0  0  0999 V2000
   27.8250   -1.6138   14.5653 N   0  0  0  0  0  0  0  0  0  0  0  0
   26.6527   -0.9492   14.9864 C   0  0  0  0  0  0  0  0  0  0  0  0
   26.6324   -0.1451   15.9217 O   0  0  0  0  0  0  0  0  0  0  0  0
   31.7783   -0.0667   15.5039 C   0  0  0  0  0  0  0  0  0  0  0  0
   30.9074   -0.5458   16.4988 C   0  0  0  0  0  0  0  0  0  0  0  0
   31.2955   -0.1517   14.1912 C   0  0  0  0  0  0  0  0  0  0  0  0
   29.6281   -1.0524   16.2048 C   0  0  0  0  0  0  0  0  0  0  0  0
   30.0130   -0.6434   13.8953 C   0  0  0  0  0  0  0  0  0  0  0  0
   29.1374   -1.0892   14.8936 C   0  0  0  0  0  0  0  0  0  0  0  0
   33.4233    2.0381   16.0258 C   0  0  0  0  0  0  0  0  0  0  0  0
   34.3240    1.7553   17.1574 N   0  0  0  0  0  0  0  0  0  0  0  0
   33.6528    0.4602   17.3531 C   0  0  0  0  0  0  0  0  0  0  0  0
   33.2053    0.5127   15.8695 C   0  0  0  0  0  0  0  0  0  0  0  0
   35.3143    1.6759   16.8873 H   0  0  0  0  0  0  0  0  0  0  0  0
   34.2307    2.4100   17.9433 H   0  0  0  0  0  0  0  0  0  0  0  0
   27.7256   -2.9225   13.8968 C   0  0  0  0  0  0  0  0  0  0  0  0
   28.6188   -4.0064   14.4506 C   0  0  0  0  0  0  0  0  0  0  0  0
   29.7793   -4.3447   13.7462 C   0  0  0  0  0  0  0  0  0  0  0  0
   28.3751   -4.7031   15.6414 C   0  0  0  0  0  0  0  0  0  0  0  0
   30.6637   -5.2947   14.1308 N   0  0  0  0  0  0  0  0  0  0  0  0
   29.2678   -5.6858   16.0534 C   0  0  0  0  0  0  0  0  0  0  0  0
   30.3859   -5.9490   15.2821 C   0  0  0  0  0  0  0  0  0  0  0  0
   29.0353   -6.3719   17.1779 F   0  0  0  0  0  0  0  0  0  0  0  0
   25.3524   -1.2929   14.2502 C   0  0  0  0  0  0  0  0  0  0  0  0
   25.1635   -0.5165   12.9722 C   0  0  0  0  0  0  0  0  0  0  0  0
   25.8359    0.6864   12.7540 C   0  0  0  0  0  0  0  0  0  0  0  0
   24.3215   -0.9789   11.9542 C   0  0  0  0  0  0  0  0  0  0  0  0
   25.7071    1.4376   11.6350 N   0  0  0  0  0  0  0  0  0  0  0  0
   24.1808   -0.2263   10.7957 C   0  0  0  0  0  0  0  0  0  0  0  0
   24.8776    0.9614   10.6772 C   0  0  0  0  0  0  0  0  0  0  0  0
   23.3783   -0.6485    9.8095 F   0  0  0  0  0  0  0  0  0  0  0  0
 10 11  1  0
 11 12  1  0
 13 10  1  0
  4 13  1  0
 12 13  1  0
  5  4  2  0
  4  6  1  0
  7  5  1  0
  6  8  2  0
  9  7  2  0
  8  9  1  0
  1  9  1  0
 16  1  1  0
  1  2  1  0
 17 16  1  0
  2  3  2  0
  2 24  1  0
 18 17  2  0
 17 19  1  0
 24 25  1  0
 20 18  1  0
 19 21  2  0
 25 26  2  0
 27 25  1  0
 22 20  2  0
 23 21  1  0
 21 22  1  0
 26 28  1  0
 29 27  2  0
 28 30  2  0
 30 29  1  0
 29 31  1  0
 11 14  1  0
 11 15  1  0
M  CHG 1  11   1
M  END
> <ScrubInfo>
{"isomerGroup": 0, "isomerId": 0, "confId": 0, "nr_conformers:": 1, "nr_isomers:": 1}

> <minimizedAffinity>
-6.18458

> <CNNscore>
0.3805299997

> <CNNaffinity>
5.9353709221

> <CNN_VS>
2.2585866451

> <CNNaffinity_variance>
0.2463229448

$$$$
Compound_83


 31 34  0  0  0  0  0  0  0  0999 V2000
   25.8642   -1.1731   15.3818 N   0  0  0  0  0  0  0  0  0  0  0  0
   26.2985    0.0244   14.7729 C   0  0  0  0  0  0  0  0  0  0  0  0
   27.4873    0.3407   14.6794 O   0  0  0  0  0  0  0  0  0  0  0  0
   28.5251   -4.5779   15.8609 C   0  0  0  0  0  0  0  0  0  0  0  0
   28.7739   -3.3413   16.4829 C   0  0  0  0  0  0  0  0  0  0  0  0
   27.3476   -4.6436   15.1042 C   0  0  0  0  0  0  0  0  0  0  0  0
   27.9167   -2.2351   16.3377 C   0  0  0  0  0  0  0  0  0  0  0  0
   26.4970   -3.5367   14.9450 C   0  0  0  0  0  0  0  0  0  0  0  0
   26.7668   -2.2980   15.5406 C   0  0  0  0  0  0  0  0  0  0  0  0
   30.6653   -6.0322   15.0165 C   0  0  0  0  0  0  0  0  0  0  0  0
   31.5292   -6.4302   16.1422 N   0  0  0  0  0  0  0  0  0  0  0  0
   30.6722   -5.6593   17.0573 C   0  0  0  0  0  0  0  0  0  0  0  0
   29.5185   -5.7985   16.0310 C   0  0  0  0  0  0  0  0  0  0  0  0
   31.5298   -7.4434   16.3244 H   0  0  0  0  0  0  0  0  0  0  0  0
   32.4959   -6.0903   16.0712 H   0  0  0  0  0  0  0  0  0  0  0  0
   24.5208   -1.2449   15.9816 C   0  0  0  0  0  0  0  0  0  0  0  0
   24.2715   -0.3035   17.1354 C   0  0  0  0  0  0  0  0  0  0  0  0
   25.3280    0.4909   17.5936 C   0  0  0  0  0  0  0  0  0  0  0  0
   23.0394   -0.1553   17.7856 C   0  0  0  0  0  0  0  0  0  0  0  0
   25.2399    1.3736   18.6161 N   0  0  0  0  0  0  0  0  0  0  0  0
   22.9271    0.7424   18.8410 C   0  0  0  0  0  0  0  0  0  0  0  0
   24.0346    1.4794   19.2216 C   0  0  0  0  0  0  0  0  0  0  0  0
   21.7614    0.8780   19.4829 F   0  0  0  0  0  0  0  0  0  0  0  0
   25.2152    0.9728   14.2460 C   0  0  0  0  0  0  0  0  0  0  0  0
   24.9329    0.8030   12.7752 C   0  0  0  0  0  0  0  0  0  0  0  0
   25.3048    1.7815   11.8527 C   0  0  0  0  0  0  0  0  0  0  0  0
   24.3033   -0.3447   12.2798 C   0  0  0  0  0  0  0  0  0  0  0  0
   25.0757    1.6976   10.5209 N   0  0  0  0  0  0  0  0  0  0  0  0
   24.0652   -0.4530   10.9161 C   0  0  0  0  0  0  0  0  0  0  0  0
   24.4574    0.5765   10.0816 C   0  0  0  0  0  0  0  0  0  0  0  0
   23.4616   -1.5416   10.4204 F   0  0  0  0  0  0  0  0  0  0  0  0
 10 11  1  0
 11 12  1  0
 13 10  1  0
  4 13  1  0
 12 13  1  0
  5  4  2  0
  4  6  1  0
  7  5  1  0
  6  8  2  0
  9  7  2  0
  8  9  1  0
  1  9  1  0
 16  1  1  0
  1  2  1  0
 17 16  1  0
  2  3  2  0
  2 24  1  0
 18 17  2  0
 17 19  1  0
 24 25  1  0
 20 18  1  0
 19 21  2  0
 25 26  2  0
 27 25  1  0
 22 20  2  0
 23 21  1  0
 21 22  1  0
 26 28  1  0
 29 27  2  0
 28 30  2  0
 30 29  1  0
 29 31  1  0
 11 14  1  0
 11 15  1  0
M  CHG 1  11   1
M  END
> <ScrubInfo>
{"isomerGroup": 0, "isomerId": 0, "confId": 0, "nr_conformers:": 1, "nr_isomers:": 1}

> <minimizedAffinity>
-6.91704

> <CNNscore>
0.3598101735

> <CNNaffinity>
6.5081372261

> <CNN_VS>
2.3416938782

> <CNNaffinity_variance>
0.1132211387

$$$$
Compound_83


 31 34  0  0  0  0  0  0  0  0999 V2000
   26.6713   -0.5106   15.4215 N   0  0  0  0  0  0  0  0  0  0  0  0
   25.4945   -0.3256   16.1793 C   0  0  0  0  0  0  0  0  0  0  0  0
   24.7581   -1.2553   16.5189 O   0  0  0  0  0  0  0  0  0  0  0  0
   28.5823   -4.4126   15.2634 C   0  0  0  0  0  0  0  0  0  0  0  0
   29.2067   -3.2976   15.8506 C   0  0  0  0  0  0  0  0  0  0  0  0
   27.2935   -4.1850   14.7627 C   0  0  0  0  0  0  0  0  0  0  0  0
   28.5949   -2.0321   15.9107 C   0  0  0  0  0  0  0  0  0  0  0  0
   26.6854   -2.9192   14.8078 C   0  0  0  0  0  0  0  0  0  0  0  0
   27.3252   -1.8046   15.3649 C   0  0  0  0  0  0  0  0  0  0  0  0
   30.7689   -5.9343   14.7051 C   0  0  0  0  0  0  0  0  0  0  0  0
   30.9970   -6.9574   15.7409 N   0  0  0  0  0  0  0  0  0  0  0  0
   29.8715   -6.4086   16.5144 C   0  0  0  0  0  0  0  0  0  0  0  0
   29.3047   -5.8195   15.1970 C   0  0  0  0  0  0  0  0  0  0  0  0
   30.8463   -7.9207   15.4104 H   0  0  0  0  0  0  0  0  0  0  0  0
   31.9105   -6.8894   16.2056 H   0  0  0  0  0  0  0  0  0  0  0  0
   27.1756    0.5823   14.5724 C   0  0  0  0  0  0  0  0  0  0  0  0
   26.3372    0.9041   13.3587 C   0  0  0  0  0  0  0  0  0  0  0  0
   25.6694   -0.1394   12.7086 C   0  0  0  0  0  0  0  0  0  0  0  0
   26.1660    2.1909   12.8319 C   0  0  0  0  0  0  0  0  0  0  0  0
   24.8879    0.0111   11.6136 N   0  0  0  0  0  0  0  0  0  0  0  0
   25.3711    2.3682   11.7054 C   0  0  0  0  0  0  0  0  0  0  0  0
   24.7563    1.2689   11.1327 C   0  0  0  0  0  0  0  0  0  0  0  0
   25.2164    3.5891   11.1811 F   0  0  0  0  0  0  0  0  0  0  0  0
   25.1219    1.1147   16.5502 C   0  0  0  0  0  0  0  0  0  0  0  0
   23.9609    1.2064   17.5070 C   0  0  0  0  0  0  0  0  0  0  0  0
   22.6754    0.8284   17.1182 C   0  0  0  0  0  0  0  0  0  0  0  0
   24.1309    1.6582   18.8208 C   0  0  0  0  0  0  0  0  0  0  0  0
   21.5879    0.8922   17.9222 N   0  0  0  0  0  0  0  0  0  0  0  0
   23.0292    1.7249   19.6634 C   0  0  0  0  0  0  0  0  0  0  0  0
   21.7914    1.3420   19.1825 C   0  0  0  0  0  0  0  0  0  0  0  0
   23.1683    2.1567   20.9240 F   0  0  0  0  0  0  0  0  0  0  0  0
 10 11  1  0
 11 12  1  0
 13 10  1  0
  4 13  1  0
 12 13  1  0
  5  4  2  0
  4  6  1  0
  7  5  1  0
  6  8  2  0
  9  7  2  0
  8  9  1  0
  1  9  1  0
 16  1  1  0
  1  2  1  0
 17 16  1  0
  2  3  2  0
  2 24  1  0
 18 17  2  0
 17 19  1  0
 24 25  1  0
 20 18  1  0
 19 21  2  0
 25 26  2  0
 27 25  1  0
 22 20  2  0
 23 21  1  0
 21 22  1  0
 26 28  1  0
 29 27  2  0
 28 30  2  0
 30 29  1  0
 29 31  1  0
 11 14  1  0
 11 15  1  0
M  CHG 1  11   1
M  END
> <ScrubInfo>
{"isomerGroup": 0, "isomerId": 0, "confId": 0, "nr_conformers:": 1, "nr_isomers:": 1}

> <minimizedAffinity>
-7.73579

> <CNNscore>
0.3562686443

> <CNNaffinity>
6.4150099754

> <CNN_VS>
2.2854669094

> <CNNaffinity_variance>
0.0705179274

$$$$
