Y6J


 32 36  0  0  0  0  0  0  0  0999 V2000
   25.2465    0.1490   15.4762 N   0  0  0  0  0  0  0  0  0  0  0  0
   26.4856   -0.3537   15.2992 C   0  0  0  0  0  0  0  0  0  0  0  0
   27.2663   -0.3819   16.2266 O   0  0  0  0  0  0  0  0  0  0  0  0
   24.8953    0.7282   16.7017 C   0  0  0  0  0  0  0  0  0  0  0  0
   24.2002    1.8709   19.1265 C   0  0  0  0  0  0  0  0  0  0  0  0
   24.1392    0.0073   17.6175 C   0  0  0  0  0  0  0  0  0  0  0  0
   23.7929    0.5777   18.8266 C   0  0  0  0  0  0  0  0  0  0  0  0
   24.9598    2.5896   18.2120 C   0  0  0  0  0  0  0  0  0  0  0  0
   25.3064    2.0196   17.0043 C   0  0  0  0  0  0  0  0  0  0  0  0
   24.6623    2.3205   21.4186 C   0  0  0  0  0  0  0  0  0  0  0  0
   23.8478    2.4489   20.3525 N   0  0  0  0  0  0  0  0  0  0  0  0
   25.7398    1.7764   21.2954 O   0  0  0  0  0  0  0  0  0  0  0  0
   23.0168    2.9424   20.4340 H   0  0  0  0  0  0  0  0  0  0  0  0
   24.2349    2.8512   22.7620 C   0  0  0  0  0  0  0  0  0  0  0  0
   25.2763    3.6102   23.5857 C   0  0  0  0  0  0  0  0  0  0  0  0
   24.8477    2.2026   24.0052 C   0  0  0  0  0  0  0  0  0  0  0  0
   26.8992   -0.8805   13.9490 C   0  0  0  0  0  0  0  0  0  0  0  0
   29.4952   -3.4362   14.2192 C   0  0  0  0  0  0  0  0  0  0  0  0
   30.1874   -2.2955   14.4111 N   0  0  0  0  0  0  0  0  0  0  0  0
   28.1494   -3.0896   14.0125 C   0  0  0  0  0  0  0  0  0  0  0  0
   27.2041   -4.0846   13.7824 C   0  0  0  0  0  0  0  0  0  0  0  0
   27.5902   -5.3955   13.7587 C   0  0  0  0  0  0  0  0  0  0  0  0
   28.9188   -5.7445   13.9617 C   0  0  0  0  0  0  0  0  0  0  0  0
   29.8645   -4.7886   14.1901 C   0  0  0  0  0  0  0  0  0  0  0  0
   28.0912   -1.7181   14.0971 N   0  0  0  0  0  0  0  0  0  0  0  0
   29.4001   -1.2797   14.3482 N   0  0  0  0  0  0  0  0  0  0  0  0
   24.2706    0.0896   14.3855 C   0  0  0  0  0  0  0  0  0  0  0  0
   24.6498    1.0842   13.3179 C   0  0  0  0  0  0  0  0  0  0  0  0
   24.8512    0.7190   11.9985 C   0  0  0  0  0  0  0  0  0  0  0  0
   25.1813    1.7217   11.1819 C   0  0  0  0  0  0  0  0  0  0  0  0
   24.8112    2.3829   13.5732 C   0  0  0  0  0  0  0  0  0  0  0  0
   25.2526    3.2245   12.0931 S   0  0  0  0  0  0  0  0  0  0  0  0
 18 24  1  0
 19 18  1  0
  1  4  1  0
  1  2  1  0
 28 27  1  0
  4  9  2  0
  5 11  1  0
  5  8  2  0
 29 28  1  0
 30 32  1  0
 30 29  2  0
 31 28  2  0
  2 17  1  0
 17 25  1  0
 20 18  2  0
 20 21  1  0
 21 22  2  0
 22 23  1  0
 24 23  2  0
 27  1  1  0
  6  7  2  0
  6  4  1  0
  7  5  1  0
 10 11  1  0
 10 14  1  0
 14 16  1  0
 14 15  1  0
 16 15  1  0
  9  8  1  0
 25 20  1  0
 26 25  1  0
 26 19  2  0
 11 13  1  0
  3  2  2  0
 12 10  2  0
 32 31  1  0
M  END
> <minimizedAffinity>
-7.49248

$$$$
Y6J


 32 36  0  0  0  0  0  0  0  0999 V2000
   25.7988   -0.3234   14.7059 N   0  0  0  0  0  0  0  0  0  0  0  0
   24.7458   -0.3250   15.5488 C   0  0  0  0  0  0  0  0  0  0  0  0
   24.6484   -1.1880   16.3951 O   0  0  0  0  0  0  0  0  0  0  0  0
   26.7258   -1.3722   14.7428 C   0  0  0  0  0  0  0  0  0  0  0  0
   28.5576   -3.4477   14.8136 C   0  0  0  0  0  0  0  0  0  0  0  0
   26.4118   -2.5954   14.1637 C   0  0  0  0  0  0  0  0  0  0  0  0
   27.3257   -3.6300   14.1992 C   0  0  0  0  0  0  0  0  0  0  0  0
   28.8726   -2.2231   15.3888 C   0  0  0  0  0  0  0  0  0  0  0  0
   27.9598   -1.1891   15.3527 C   0  0  0  0  0  0  0  0  0  0  0  0
   29.4080   -5.4315   15.8191 C   0  0  0  0  0  0  0  0  0  0  0  0
   29.4836   -4.4979   14.8500 N   0  0  0  0  0  0  0  0  0  0  0  0
   28.4885   -5.4100   16.6104 O   0  0  0  0  0  0  0  0  0  0  0  0
   30.1796   -4.5532   14.1768 H   0  0  0  0  0  0  0  0  0  0  0  0
   30.4648   -6.5002   15.9202 C   0  0  0  0  0  0  0  0  0  0  0  0
   31.8874   -6.0567   16.2644 C   0  0  0  0  0  0  0  0  0  0  0  0
   31.5537   -6.5205   14.8452 C   0  0  0  0  0  0  0  0  0  0  0  0
   23.6910    0.7459   15.4389 C   0  0  0  0  0  0  0  0  0  0  0  0
   22.7045    1.5592   18.8607 C   0  0  0  0  0  0  0  0  0  0  0  0
   21.5989    0.9626   18.3721 N   0  0  0  0  0  0  0  0  0  0  0  0
   23.6679    1.5764   17.8382 C   0  0  0  0  0  0  0  0  0  0  0  0
   24.9167    2.1445   18.0709 C   0  0  0  0  0  0  0  0  0  0  0  0
   25.2000    2.6835   19.2947 C   0  0  0  0  0  0  0  0  0  0  0  0
   24.2520    2.6702   20.3091 C   0  0  0  0  0  0  0  0  0  0  0  0
   23.0210    2.1187   20.1069 C   0  0  0  0  0  0  0  0  0  0  0  0
   23.0830    0.9676   16.7525 N   0  0  0  0  0  0  0  0  0  0  0  0
   21.7873    0.6055   17.1504 N   0  0  0  0  0  0  0  0  0  0  0  0
   25.9703    0.7750   13.7521 C   0  0  0  0  0  0  0  0  0  0  0  0
   25.2523    0.4422   12.4689 C   0  0  0  0  0  0  0  0  0  0  0  0
   25.3446    1.2338   11.3378 C   0  0  0  0  0  0  0  0  0  0  0  0
   24.6472    0.7964   10.2873 C   0  0  0  0  0  0  0  0  0  0  0  0
   24.4848   -0.6402   12.3371 C   0  0  0  0  0  0  0  0  0  0  0  0
   23.8145   -0.6935   10.7119 S   0  0  0  0  0  0  0  0  0  0  0  0
 18 24  1  0
 19 18  1  0
  1  4  1  0
  1  2  1  0
 28 27  1  0
  4  9  2  0
  5 11  1  0
  5  8  2  0
 29 28  1  0
 30 32  1  0
 30 29  2  0
 31 28  2  0
  2 17  1  0
 17 25  1  0
 20 18  2  0
 20 21  1  0
 21 22  2  0
 22 23  1  0
 24 23  2  0
 27  1  1  0
  6  7  2  0
  6  4  1  0
  7  5  1  0
 10 11  1  0
 10 14  1  0
 14 16  1  0
 14 15  1  0
 16 15  1  0
  9  8  1  0
 25 20  1  0
 26 25  1  0
 26 19  2  0
 11 13  1  0
  3  2  2  0
 12 10  2  0
 32 31  1  0
M  END
> <minimizedAffinity>
-7.42762

$$$$
Y6J


 32 36  0  0  0  0  0  0  0  0999 V2000
   26.9126    0.7510   14.5107 N   0  0  0  0  0  0  0  0  0  0  0  0
   26.2630    1.1377   15.6277 C   0  0  0  0  0  0  0  0  0  0  0  0
   26.4358    0.5382   16.6675 O   0  0  0  0  0  0  0  0  0  0  0  0
   27.7084   -0.4010   14.5278 C   0  0  0  0  0  0  0  0  0  0  0  0
   29.2798   -2.6809   14.5617 C   0  0  0  0  0  0  0  0  0  0  0  0
   27.1561   -1.6193   14.9030 C   0  0  0  0  0  0  0  0  0  0  0  0
   27.9402   -2.7560   14.9196 C   0  0  0  0  0  0  0  0  0  0  0  0
   29.8304   -1.4631   14.1826 C   0  0  0  0  0  0  0  0  0  0  0  0
   29.0468   -0.3276   14.1653 C   0  0  0  0  0  0  0  0  0  0  0  0
   29.6484   -4.9378   15.2250 C   0  0  0  0  0  0  0  0  0  0  0  0
   30.0746   -3.8339   14.5797 N   0  0  0  0  0  0  0  0  0  0  0  0
   28.5404   -4.9607   15.7189 O   0  0  0  0  0  0  0  0  0  0  0  0
   30.9324   -3.8378   14.1270 H   0  0  0  0  0  0  0  0  0  0  0  0
   30.5474   -6.1416   15.3336 C   0  0  0  0  0  0  0  0  0  0  0  0
   30.4887   -6.9526   16.6289 C   0  0  0  0  0  0  0  0  0  0  0  0
   31.7040   -6.0715   16.3332 C   0  0  0  0  0  0  0  0  0  0  0  0
   25.3230    2.3150   15.5833 C   0  0  0  0  0  0  0  0  0  0  0  0
   23.3598    2.2468   18.6631 C   0  0  0  0  0  0  0  0  0  0  0  0
   24.2328    3.2473   18.8955 N   0  0  0  0  0  0  0  0  0  0  0  0
   23.6292    1.7334   17.3833 C   0  0  0  0  0  0  0  0  0  0  0  0
   22.8713    0.6779   16.8855 C   0  0  0  0  0  0  0  0  0  0  0  0
   21.8676    0.1452   17.6451 C   0  0  0  0  0  0  0  0  0  0  0  0
   21.5968    0.6477   18.9109 C   0  0  0  0  0  0  0  0  0  0  0  0
   22.3243    1.6823   19.4215 C   0  0  0  0  0  0  0  0  0  0  0  0
   24.6779    2.4730   16.8885 N   0  0  0  0  0  0  0  0  0  0  0  0
   25.0107    3.4051   17.8828 N   0  0  0  0  0  0  0  0  0  0  0  0
   26.7834    1.5361   13.2808 C   0  0  0  0  0  0  0  0  0  0  0  0
   25.7861    0.8733   12.3647 C   0  0  0  0  0  0  0  0  0  0  0  0
   25.4948    1.3624   11.1036 C   0  0  0  0  0  0  0  0  0  0  0  0
   24.5896    0.6567   10.4224 C   0  0  0  0  0  0  0  0  0  0  0  0
   25.1226   -0.2315   12.7070 C   0  0  0  0  0  0  0  0  0  0  0  0
   24.0522   -0.7068   11.3947 S   0  0  0  0  0  0  0  0  0  0  0  0
 18 24  1  0
 19 18  1  0
  1  4  1  0
  1  2  1  0
 28 27  1  0
  4  9  2  0
  5 11  1  0
  5  8  2  0
 29 28  1  0
 30 32  1  0
 30 29  2  0
 31 28  2  0
  2 17  1  0
 17 25  1  0
 20 18  2  0
 20 21  1  0
 21 22  2  0
 22 23  1  0
 24 23  2  0
 27  1  1  0
  6  7  2  0
  6  4  1  0
  7  5  1  0
 10 11  1  0
 10 14  1  0
 14 16  1  0
 14 15  1  0
 16 15  1  0
  9  8  1  0
 25 20  1  0
 26 25  1  0
 26 19  2  0
 11 13  1  0
  3  2  2  0
 12 10  2  0
 32 31  1  0
M  END
> <minimizedAffinity>
-7.40987

$$$$
Y6J


 32 36  0  0  0  0  0  0  0  0999 V2000
   24.7596   -1.4301   14.8557 N   0  0  0  0  0  0  0  0  0  0  0  0
   24.1778   -0.9724   15.9832 C   0  0  0  0  0  0  0  0  0  0  0  0
   24.5411   -1.3861   17.0636 O   0  0  0  0  0  0  0  0  0  0  0  0
   25.7123   -2.4540   14.9264 C   0  0  0  0  0  0  0  0  0  0  0  0
   27.5983   -4.4769   15.0651 C   0  0  0  0  0  0  0  0  0  0  0  0
   26.8785   -2.3685   14.1763 C   0  0  0  0  0  0  0  0  0  0  0  0
   27.8187   -3.3776   14.2459 C   0  0  0  0  0  0  0  0  0  0  0  0
   26.4338   -4.5598   15.8181 C   0  0  0  0  0  0  0  0  0  0  0  0
   25.4948   -3.5513   15.7491 C   0  0  0  0  0  0  0  0  0  0  0  0
   29.4985   -5.4774   16.0934 C   0  0  0  0  0  0  0  0  0  0  0  0
   28.5519   -5.5004   15.1344 N   0  0  0  0  0  0  0  0  0  0  0  0
   29.4747   -4.6159   16.9475 O   0  0  0  0  0  0  0  0  0  0  0  0
   28.5304   -6.2264   14.4917 H   0  0  0  0  0  0  0  0  0  0  0  0
   30.5857   -6.5199   16.1043 C   0  0  0  0  0  0  0  0  0  0  0  0
   31.9333   -6.1291   16.7130 C   0  0  0  0  0  0  0  0  0  0  0  0
   31.7962   -6.2876   15.1974 C   0  0  0  0  0  0  0  0  0  0  0  0
   23.0769    0.0536   15.9000 C   0  0  0  0  0  0  0  0  0  0  0  0
   22.8111    1.6933   19.1533 C   0  0  0  0  0  0  0  0  0  0  0  0
   21.7952    0.8080   19.1887 N   0  0  0  0  0  0  0  0  0  0  0  0
   23.4552    1.5551   17.9123 C   0  0  0  0  0  0  0  0  0  0  0  0
   24.5483    2.3593   17.6045 C   0  0  0  0  0  0  0  0  0  0  0  0
   24.9903    3.2808   18.5121 C   0  0  0  0  0  0  0  0  0  0  0  0
   24.3577    3.4227   19.7400 C   0  0  0  0  0  0  0  0  0  0  0  0
   23.2850    2.6462   20.0664 C   0  0  0  0  0  0  0  0  0  0  0  0
   22.7815    0.5613   17.2414 N   0  0  0  0  0  0  0  0  0  0  0  0
   21.7525    0.1336   18.0937 N   0  0  0  0  0  0  0  0  0  0  0  0
   24.3930   -0.8565   13.5589 C   0  0  0  0  0  0  0  0  0  0  0  0
   25.0650    0.4831   13.3945 C   0  0  0  0  0  0  0  0  0  0  0  0
   24.8887    1.2711   12.2708 C   0  0  0  0  0  0  0  0  0  0  0  0
   25.5550    2.4274   12.2851 C   0  0  0  0  0  0  0  0  0  0  0  0
   25.8697    0.9999   14.3237 C   0  0  0  0  0  0  0  0  0  0  0  0
   26.4670    2.5634   13.7829 S   0  0  0  0  0  0  0  0  0  0  0  0
 18 24  1  0
 19 18  1  0
  1  4  1  0
  1  2  1  0
 28 27  1  0
  4  9  2  0
  5 11  1  0
  5  8  2  0
 29 28  1  0
 30 32  1  0
 30 29  2  0
 31 28  2  0
  2 17  1  0
 17 25  1  0
 20 18  2  0
 20 21  1  0
 21 22  2  0
 22 23  1  0
 24 23  2  0
 27  1  1  0
  6  7  2  0
  6  4  1  0
  7  5  1  0
 10 11  1  0
 10 14  1  0
 14 16  1  0
 14 15  1  0
 16 15  1  0
  9  8  1  0
 25 20  1  0
 26 25  1  0
 26 19  2  0
 11 13  1  0
  3  2  2  0
 12 10  2  0
 32 31  1  0
M  END
> <minimizedAffinity>
-7.25350

$$$$
Y6J


 32 36  0  0  0  0  0  0  0  0999 V2000
   28.3418   -2.6594   14.2388 N   0  0  0  0  0  0  0  0  0  0  0  0
   28.3427   -3.9402   13.8160 C   0  0  0  0  0  0  0  0  0  0  0  0
   27.2976   -4.5479   13.7215 O   0  0  0  0  0  0  0  0  0  0  0  0
   27.1475   -2.0636   14.6626 C   0  0  0  0  0  0  0  0  0  0  0  0
   24.7861   -0.8868   15.5034 C   0  0  0  0  0  0  0  0  0  0  0  0
   26.4593   -2.5878   15.7497 C   0  0  0  0  0  0  0  0  0  0  0  0
   25.2817   -2.0004   16.1686 C   0  0  0  0  0  0  0  0  0  0  0  0
   25.4770   -0.3607   14.4191 C   0  0  0  0  0  0  0  0  0  0  0  0
   26.6538   -0.9471   14.0010 C   0  0  0  0  0  0  0  0  0  0  0  0
   23.5616    0.4225   17.0706 C   0  0  0  0  0  0  0  0  0  0  0  0
   23.5913   -0.2923   15.9283 N   0  0  0  0  0  0  0  0  0  0  0  0
   24.5873    0.6215   17.6873 O   0  0  0  0  0  0  0  0  0  0  0  0
   22.7847   -0.3950   15.3996 H   0  0  0  0  0  0  0  0  0  0  0  0
   22.2558    0.9730   17.5814 C   0  0  0  0  0  0  0  0  0  0  0  0
   22.2253    1.5025   19.0159 C   0  0  0  0  0  0  0  0  0  0  0  0
   21.5345    0.1808   18.6741 C   0  0  0  0  0  0  0  0  0  0  0  0
   29.6424   -4.6156   13.4607 C   0  0  0  0  0  0  0  0  0  0  0  0
   30.1262   -6.6585   16.4500 C   0  0  0  0  0  0  0  0  0  0  0  0
   31.1718   -7.0175   15.6787 N   0  0  0  0  0  0  0  0  0  0  0  0
   29.3816   -5.7006   15.7415 C   0  0  0  0  0  0  0  0  0  0  0  0
   28.2334   -5.1560   16.3084 C   0  0  0  0  0  0  0  0  0  0  0  0
   27.8352   -5.5564   17.5531 C   0  0  0  0  0  0  0  0  0  0  0  0
   28.5663   -6.5032   18.2582 C   0  0  0  0  0  0  0  0  0  0  0  0
   29.6958   -7.0515   17.7254 C   0  0  0  0  0  0  0  0  0  0  0  0
   30.0348   -5.5183   14.5450 N   0  0  0  0  0  0  0  0  0  0  0  0
   31.1484   -6.3714   14.5662 N   0  0  0  0  0  0  0  0  0  0  0  0
   29.5905   -1.8940   14.2552 C   0  0  0  0  0  0  0  0  0  0  0  0
   29.8392   -1.3691   15.6465 C   0  0  0  0  0  0  0  0  0  0  0  0
   30.0615   -2.2034   16.7277 C   0  0  0  0  0  0  0  0  0  0  0  0
   30.2650   -1.5768   17.8885 C   0  0  0  0  0  0  0  0  0  0  0  0
   29.8668   -0.0657   15.9264 C   0  0  0  0  0  0  0  0  0  0  0  0
   30.1776    0.1625   17.6425 S   0  0  0  0  0  0  0  0  0  0  0  0
 18 24  1  0
 19 18  1  0
  1  4  1  0
  1  2  1  0
 28 27  1  0
  4  9  2  0
  5 11  1  0
  5  8  2  0
 29 28  1  0
 30 32  1  0
 30 29  2  0
 31 28  2  0
  2 17  1  0
 17 25  1  0
 20 18  2  0
 20 21  1  0
 21 22  2  0
 22 23  1  0
 24 23  2  0
 27  1  1  0
  6  7  2  0
  6  4  1  0
  7  5  1  0
 10 11  1  0
 10 14  1  0
 14 16  1  0
 14 15  1  0
 16 15  1  0
  9  8  1  0
 25 20  1  0
 26 25  1  0
 26 19  2  0
 11 13  1  0
  3  2  2  0
 12 10  2  0
 32 31  1  0
M  END
> <minimizedAffinity>
-7.20088

$$$$
Y6J


 32 36  0  0  0  0  0  0  0  0999 V2000
   27.2995   -3.6380   15.2653 N   0  0  0  0  0  0  0  0  0  0  0  0
   26.2819   -2.8507   14.8604 C   0  0  0  0  0  0  0  0  0  0  0  0
   25.2663   -2.7863   15.5197 O   0  0  0  0  0  0  0  0  0  0  0  0
   27.1458   -4.4558   16.3915 C   0  0  0  0  0  0  0  0  0  0  0  0
   26.8443   -6.0722   18.6197 C   0  0  0  0  0  0  0  0  0  0  0  0
   28.2602   -4.8386   17.1274 C   0  0  0  0  0  0  0  0  0  0  0  0
   28.1093   -5.6446   18.2385 C   0  0  0  0  0  0  0  0  0  0  0  0
   25.7299   -5.6856   17.8858 C   0  0  0  0  0  0  0  0  0  0  0  0
   25.8806   -4.8798   16.7761 C   0  0  0  0  0  0  0  0  0  0  0  0
   26.7469   -6.3552   20.9819 C   0  0  0  0  0  0  0  0  0  0  0  0
   26.6922   -6.8904   19.7461 N   0  0  0  0  0  0  0  0  0  0  0  0
   26.8440   -5.1534   21.1176 O   0  0  0  0  0  0  0  0  0  0  0  0
   26.5469   -7.8431   19.6364 H   0  0  0  0  0  0  0  0  0  0  0  0
   26.6884   -7.2485   22.1933 C   0  0  0  0  0  0  0  0  0  0  0  0
   26.7907   -8.7572   21.9643 C   0  0  0  0  0  0  0  0  0  0  0  0
   25.4509   -8.1332   22.3595 C   0  0  0  0  0  0  0  0  0  0  0  0
   26.4077   -2.0510   13.5892 C   0  0  0  0  0  0  0  0  0  0  0  0
   26.1392    1.5843   13.8272 C   0  0  0  0  0  0  0  0  0  0  0  0
   26.6381    1.2487   15.0337 N   0  0  0  0  0  0  0  0  0  0  0  0
   25.9698    0.3999   13.0905 C   0  0  0  0  0  0  0  0  0  0  0  0
   25.4598    0.4542   11.7970 C   0  0  0  0  0  0  0  0  0  0  0  0
   25.1257    1.6611   11.2490 C   0  0  0  0  0  0  0  0  0  0  0  0
   25.2902    2.8351   11.9721 C   0  0  0  0  0  0  0  0  0  0  0  0
   25.7889    2.8090   13.2413 C   0  0  0  0  0  0  0  0  0  0  0  0
   26.3914   -0.6220   13.9088 N   0  0  0  0  0  0  0  0  0  0  0  0
   26.7981   -0.0256   15.1118 N   0  0  0  0  0  0  0  0  0  0  0  0
   28.5636   -3.6374   14.5253 C   0  0  0  0  0  0  0  0  0  0  0  0
   29.3588   -2.4099   14.8911 C   0  0  0  0  0  0  0  0  0  0  0  0
   29.9110   -1.5703   13.9399 C   0  0  0  0  0  0  0  0  0  0  0  0
   30.5841   -0.5285   14.4328 C   0  0  0  0  0  0  0  0  0  0  0  0
   29.5782   -2.0489   16.1558 C   0  0  0  0  0  0  0  0  0  0  0  0
   30.5410   -0.5773   16.1904 S   0  0  0  0  0  0  0  0  0  0  0  0
 18 24  1  0
 19 18  1  0
  1  4  1  0
  1  2  1  0
 28 27  1  0
  4  9  2  0
  5 11  1  0
  5  8  2  0
 29 28  1  0
 30 32  1  0
 30 29  2  0
 31 28  2  0
  2 17  1  0
 17 25  1  0
 20 18  2  0
 20 21  1  0
 21 22  2  0
 22 23  1  0
 24 23  2  0
 27  1  1  0
  6  7  2  0
  6  4  1  0
  7  5  1  0
 10 11  1  0
 10 14  1  0
 14 16  1  0
 14 15  1  0
 16 15  1  0
  9  8  1  0
 25 20  1  0
 26 25  1  0
 26 19  2  0
 11 13  1  0
  3  2  2  0
 12 10  2  0
 32 31  1  0
M  END
> <minimizedAffinity>
-7.18372

$$$$
Y6J


 32 36  0  0  0  0  0  0  0  0999 V2000
   25.9146   -1.0533   13.9278 N   0  0  0  0  0  0  0  0  0  0  0  0
   26.5512   -0.1918   13.1081 C   0  0  0  0  0  0  0  0  0  0  0  0
   27.7214   -0.3626   12.8401 O   0  0  0  0  0  0  0  0  0  0  0  0
   26.6287   -2.0863   14.5473 C   0  0  0  0  0  0  0  0  0  0  0  0
   28.0413   -4.1274   15.7749 C   0  0  0  0  0  0  0  0  0  0  0  0
   27.5503   -1.7909   15.5441 C   0  0  0  0  0  0  0  0  0  0  0  0
   28.2544   -2.8091   16.1559 C   0  0  0  0  0  0  0  0  0  0  0  0
   27.1166   -4.4224   14.7811 C   0  0  0  0  0  0  0  0  0  0  0  0
   26.4125   -3.4051   14.1702 C   0  0  0  0  0  0  0  0  0  0  0  0
   29.9714   -5.5130   15.9309 C   0  0  0  0  0  0  0  0  0  0  0  0
   28.7565   -5.1594   16.3952 N   0  0  0  0  0  0  0  0  0  0  0  0
   30.4819   -4.8825   15.0287 O   0  0  0  0  0  0  0  0  0  0  0  0
   28.3771   -5.6197   17.1600 H   0  0  0  0  0  0  0  0  0  0  0  0
   30.6941   -6.6905   16.5310 C   0  0  0  0  0  0  0  0  0  0  0  0
   30.1118   -7.3018   17.8062 C   0  0  0  0  0  0  0  0  0  0  0  0
   31.3992   -6.4777   17.8724 C   0  0  0  0  0  0  0  0  0  0  0  0
   25.8077    0.9825   12.5250 C   0  0  0  0  0  0  0  0  0  0  0  0
   26.6329    4.3446   13.6906 C   0  0  0  0  0  0  0  0  0  0  0  0
   27.2790    3.5615   14.5773 N   0  0  0  0  0  0  0  0  0  0  0  0
   25.9742    3.5035   12.7781 C   0  0  0  0  0  0  0  0  0  0  0  0
   25.2189    4.0541   11.7473 C   0  0  0  0  0  0  0  0  0  0  0  0
   25.1215    5.4122   11.6276 C   0  0  0  0  0  0  0  0  0  0  0  0
   25.7695    6.2489   12.5266 C   0  0  0  0  0  0  0  0  0  0  0  0
   26.5166    5.7344   13.5450 C   0  0  0  0  0  0  0  0  0  0  0  0
   26.2669    2.2167   13.1656 N   0  0  0  0  0  0  0  0  0  0  0  0
   27.0880    2.3199   14.2985 N   0  0  0  0  0  0  0  0  0  0  0  0
   24.4775   -0.9061   14.1697 C   0  0  0  0  0  0  0  0  0  0  0  0
   24.2591   -0.2322   15.5006 C   0  0  0  0  0  0  0  0  0  0  0  0
   22.9977    0.0628   15.9870 C   0  0  0  0  0  0  0  0  0  0  0  0
   22.9811    0.6593   17.1809 C   0  0  0  0  0  0  0  0  0  0  0  0
   25.2668    0.1194   16.2998 C   0  0  0  0  0  0  0  0  0  0  0  0
   24.6298    0.8780   17.7532 S   0  0  0  0  0  0  0  0  0  0  0  0
 18 24  1  0
 19 18  1  0
  1  4  1  0
  1  2  1  0
 28 27  1  0
  4  9  2  0
  5 11  1  0
  5  8  2  0
 29 28  1  0
 30 32  1  0
 30 29  2  0
 31 28  2  0
  2 17  1  0
 17 25  1  0
 20 18  2  0
 20 21  1  0
 21 22  2  0
 22 23  1  0
 24 23  2  0
 27  1  1  0
  6  7  2  0
  6  4  1  0
  7  5  1  0
 10 11  1  0
 10 14  1  0
 14 16  1  0
 14 15  1  0
 16 15  1  0
  9  8  1  0
 25 20  1  0
 26 25  1  0
 26 19  2  0
 11 13  1  0
  3  2  2  0
 12 10  2  0
 32 31  1  0
M  END
> <minimizedAffinity>
-7.15734

$$$$
Y6J


 32 36  0  0  0  0  0  0  0  0999 V2000
   24.8755   -1.3031   16.5016 N   0  0  0  0  0  0  0  0  0  0  0  0
   25.4284   -2.2384   15.7022 C   0  0  0  0  0  0  0  0  0  0  0  0
   26.1557   -1.9040   14.7914 O   0  0  0  0  0  0  0  0  0  0  0  0
   25.0610    0.0559   16.2197 C   0  0  0  0  0  0  0  0  0  0  0  0
   25.4250    2.7437   15.6613 C   0  0  0  0  0  0  0  0  0  0  0  0
   24.2477    0.6875   15.2871 C   0  0  0  0  0  0  0  0  0  0  0  0
   24.4297    2.0279   15.0091 C   0  0  0  0  0  0  0  0  0  0  0  0
   26.2350    2.1125   16.5969 C   0  0  0  0  0  0  0  0  0  0  0  0
   26.0528    0.7734   16.8752 C   0  0  0  0  0  0  0  0  0  0  0  0
   26.7097    4.5112   14.7154 C   0  0  0  0  0  0  0  0  0  0  0  0
   25.6094    4.1028   15.3781 N   0  0  0  0  0  0  0  0  0  0  0  0
   27.4991    3.6937   14.2906 O   0  0  0  0  0  0  0  0  0  0  0  0
   24.9443    4.7505   15.6590 H   0  0  0  0  0  0  0  0  0  0  0  0
   26.9593    5.9815   14.5031 C   0  0  0  0  0  0  0  0  0  0  0  0
   25.7872    6.9372   14.7309 C   0  0  0  0  0  0  0  0  0  0  0  0
   26.2734    6.6492   13.3091 C   0  0  0  0  0  0  0  0  0  0  0  0
   25.1424   -3.6987   15.9416 C   0  0  0  0  0  0  0  0  0  0  0  0
   28.3768   -5.3612   16.2862 C   0  0  0  0  0  0  0  0  0  0  0  0
   27.9101   -5.3656   17.5508 N   0  0  0  0  0  0  0  0  0  0  0  0
   27.4145   -4.7329   15.4779 C   0  0  0  0  0  0  0  0  0  0  0  0
   27.6433   -4.5867   14.1131 C   0  0  0  0  0  0  0  0  0  0  0  0
   28.8044   -5.0557   13.5652 C   0  0  0  0  0  0  0  0  0  0  0  0
   29.7595   -5.6770   14.3587 C   0  0  0  0  0  0  0  0  0  0  0  0
   29.5591   -5.8335   15.6987 C   0  0  0  0  0  0  0  0  0  0  0  0
   26.3818   -4.3829   16.3161 N   0  0  0  0  0  0  0  0  0  0  0  0
   26.7523   -4.8064   17.6012 N   0  0  0  0  0  0  0  0  0  0  0  0
   24.0808   -1.7106   17.6625 C   0  0  0  0  0  0  0  0  0  0  0  0
   23.2746   -0.5361   18.1561 C   0  0  0  0  0  0  0  0  0  0  0  0
   23.8207    0.4637   18.9415 C   0  0  0  0  0  0  0  0  0  0  0  0
   22.9702    1.4308   19.2920 C   0  0  0  0  0  0  0  0  0  0  0  0
   21.9830   -0.3801   17.8641 C   0  0  0  0  0  0  0  0  0  0  0  0
   21.3831    1.0942   18.6127 S   0  0  0  0  0  0  0  0  0  0  0  0
 18 24  1  0
 19 18  1  0
  1  4  1  0
  1  2  1  0
 28 27  1  0
  4  9  2  0
  5 11  1  0
  5  8  2  0
 29 28  1  0
 30 32  1  0
 30 29  2  0
 31 28  2  0
  2 17  1  0
 17 25  1  0
 20 18  2  0
 20 21  1  0
 21 22  2  0
 22 23  1  0
 24 23  2  0
 27  1  1  0
  6  7  2  0
  6  4  1  0
  7  5  1  0
 10 11  1  0
 10 14  1  0
 14 16  1  0
 14 15  1  0
 16 15  1  0
  9  8  1  0
 25 20  1  0
 26 25  1  0
 26 19  2  0
 11 13  1  0
  3  2  2  0
 12 10  2  0
 32 31  1  0
M  END
> <minimizedAffinity>
-7.15592

$$$$
Y6J


 32 36  0  0  0  0  0  0  0  0999 V2000
   24.8083   -0.1755   16.0035 N   0  0  0  0  0  0  0  0  0  0  0  0
   24.7816    0.6054   17.1029 C   0  0  0  0  0  0  0  0  0  0  0  0
   25.6370    0.4837   17.9536 O   0  0  0  0  0  0  0  0  0  0  0  0
   25.7643   -1.1925   15.8912 C   0  0  0  0  0  0  0  0  0  0  0  0
   27.6568   -3.2021   15.6704 C   0  0  0  0  0  0  0  0  0  0  0  0
   27.1171   -0.8811   15.9448 C   0  0  0  0  0  0  0  0  0  0  0  0
   28.0605   -1.8836   15.8347 C   0  0  0  0  0  0  0  0  0  0  0  0
   26.3038   -3.5133   15.6212 C   0  0  0  0  0  0  0  0  0  0  0  0
   25.3613   -2.5118   15.7319 C   0  0  0  0  0  0  0  0  0  0  0  0
   28.6867   -5.1843   16.4948 C   0  0  0  0  0  0  0  0  0  0  0  0
   28.6141   -4.2181   15.5579 N   0  0  0  0  0  0  0  0  0  0  0  0
   27.8693   -5.2218   17.3907 O   0  0  0  0  0  0  0  0  0  0  0  0
   29.2251   -4.2264   14.8047 H   0  0  0  0  0  0  0  0  0  0  0  0
   29.7822   -6.2161   16.4301 C   0  0  0  0  0  0  0  0  0  0  0  0
   31.2219   -5.7297   16.6021 C   0  0  0  0  0  0  0  0  0  0  0  0
   30.7239   -6.1718   15.2247 C   0  0  0  0  0  0  0  0  0  0  0  0
   23.6888    1.6294   17.2734 C   0  0  0  0  0  0  0  0  0  0  0  0
   24.1121    3.4155   20.4316 C   0  0  0  0  0  0  0  0  0  0  0  0
   23.3826    2.3429   20.7983 N   0  0  0  0  0  0  0  0  0  0  0  0
   24.3432    3.3225   19.0488 C   0  0  0  0  0  0  0  0  0  0  0  0
   25.0755    4.3118   18.3996 C   0  0  0  0  0  0  0  0  0  0  0  0
   25.5667    5.3703   19.1113 C   0  0  0  0  0  0  0  0  0  0  0  0
   25.3412    5.4683   20.4780 C   0  0  0  0  0  0  0  0  0  0  0  0
   24.6275    4.5116   21.1380 C   0  0  0  0  0  0  0  0  0  0  0  0
   23.7293    2.1629   18.6365 N   0  0  0  0  0  0  0  0  0  0  0  0
   23.1454    1.5947   19.7787 N   0  0  0  0  0  0  0  0  0  0  0  0
   23.8364    0.0406   14.9292 C   0  0  0  0  0  0  0  0  0  0  0  0
   24.5216    0.6955   13.7567 C   0  0  0  0  0  0  0  0  0  0  0  0
   24.8808    2.0317   13.7562 C   0  0  0  0  0  0  0  0  0  0  0  0
   25.4792    2.4524   12.6399 C   0  0  0  0  0  0  0  0  0  0  0  0
   24.8318    0.0290   12.6443 C   0  0  0  0  0  0  0  0  0  0  0  0
   25.6130    1.1165   11.5037 S   0  0  0  0  0  0  0  0  0  0  0  0
 18 24  1  0
 19 18  1  0
  1  4  1  0
  1  2  1  0
 28 27  1  0
  4  9  2  0
  5 11  1  0
  5  8  2  0
 29 28  1  0
 30 32  1  0
 30 29  2  0
 31 28  2  0
  2 17  1  0
 17 25  1  0
 20 18  2  0
 20 21  1  0
 21 22  2  0
 22 23  1  0
 24 23  2  0
 27  1  1  0
  6  7  2  0
  6  4  1  0
  7  5  1  0
 10 11  1  0
 10 14  1  0
 14 16  1  0
 14 15  1  0
 16 15  1  0
  9  8  1  0
 25 20  1  0
 26 25  1  0
 26 19  2  0
 11 13  1  0
  3  2  2  0
 12 10  2  0
 32 31  1  0
M  END
> <minimizedAffinity>
-7.14421

$$$$
